*SPEF "ieee 1481-1999"
*DESIGN "pmu"
*DATE "16:09:24 Saturday January 24, 2026"
*VENDOR "The OpenROAD Project"
*PROGRAM "OpenROAD"
*VERSION "v2.0-16235-gedf00dff9"
*DESIGN_FLOW "NAME_SCOPE LOCAL" "PIN_CAP NONE"
*DIVIDER /
*DELIMITER :
*BUS_DELIMITER []
*T_UNIT 1 NS
*C_UNIT 1 PF
*R_UNIT 1 OHM
*L_UNIT 1 HENRY

*NAME_MAP
*3 clk
*4 delay_sel[0]
*5 delay_sel[1]
*6 delay_sel[2]
*7 path[0]
*8 path[1]
*9 path[2]
*10 path[3]
*11 path[4]
*12 path[5]
*13 path[6]
*14 path[7]
*15 path_sel[0]
*16 path_sel[1]
*17 path_sel[2]
*18 rst
*19 se
*20 tdi
*21 tdo
*22 _00_
*23 _01_
*24 _02_
*25 _03_
*26 _04_
*27 _05_
*28 _06_
*29 _07_
*30 _08_
*31 _09_
*32 _10_
*33 capture_d
*34 capture_q
*35 clknet_0_clk
*36 clknet_1_0__leaf_clk
*37 clknet_1_1__leaf_clk
*38 dc_inst\.in
*39 dc_inst\.net1
*40 dc_inst\.net2
*41 dc_inst\.net3
*42 dc_inst\.net4
*43 dc_inst\.net5
*44 dc_inst\.net6
*45 dc_inst\.net7
*46 dc_inst\.net8
*47 dc_inst\.net9
*48 dc_inst\.x1\.net1
*49 dc_inst\.x1\.net10
*50 dc_inst\.x1\.net11
*51 dc_inst\.x1\.net12
*52 dc_inst\.x1\.net13
*53 dc_inst\.x1\.net14
*54 dc_inst\.x1\.net15
*55 dc_inst\.x1\.net16
*56 dc_inst\.x1\.net17
*57 dc_inst\.x1\.net18
*58 dc_inst\.x1\.net19
*59 dc_inst\.x1\.net2
*60 dc_inst\.x1\.net3
*61 dc_inst\.x1\.net4
*62 dc_inst\.x1\.net5
*63 dc_inst\.x1\.net6
*64 dc_inst\.x1\.net7
*65 dc_inst\.x1\.net8
*66 dc_inst\.x1\.net9
*67 dc_inst\.x2\.net1
*68 dc_inst\.x2\.net10
*69 dc_inst\.x2\.net11
*70 dc_inst\.x2\.net12
*71 dc_inst\.x2\.net13
*72 dc_inst\.x2\.net14
*73 dc_inst\.x2\.net15
*74 dc_inst\.x2\.net16
*75 dc_inst\.x2\.net17
*76 dc_inst\.x2\.net18
*77 dc_inst\.x2\.net19
*78 dc_inst\.x2\.net2
*79 dc_inst\.x2\.net3
*80 dc_inst\.x2\.net4
*81 dc_inst\.x2\.net5
*82 dc_inst\.x2\.net6
*83 dc_inst\.x2\.net7
*84 dc_inst\.x2\.net8
*85 dc_inst\.x2\.net9
*86 dc_inst\.x3\.net1
*87 dc_inst\.x3\.net10
*88 dc_inst\.x3\.net11
*89 dc_inst\.x3\.net12
*90 dc_inst\.x3\.net13
*91 dc_inst\.x3\.net14
*92 dc_inst\.x3\.net15
*93 dc_inst\.x3\.net16
*94 dc_inst\.x3\.net17
*95 dc_inst\.x3\.net18
*96 dc_inst\.x3\.net19
*97 dc_inst\.x3\.net2
*98 dc_inst\.x3\.net3
*99 dc_inst\.x3\.net4
*100 dc_inst\.x3\.net5
*101 dc_inst\.x3\.net6
*102 dc_inst\.x3\.net7
*103 dc_inst\.x3\.net8
*104 dc_inst\.x3\.net9
*105 dc_inst\.x4\.net1
*106 dc_inst\.x4\.net10
*107 dc_inst\.x4\.net11
*108 dc_inst\.x4\.net12
*109 dc_inst\.x4\.net13
*110 dc_inst\.x4\.net14
*111 dc_inst\.x4\.net15
*112 dc_inst\.x4\.net16
*113 dc_inst\.x4\.net17
*114 dc_inst\.x4\.net18
*115 dc_inst\.x4\.net19
*116 dc_inst\.x4\.net2
*117 dc_inst\.x4\.net3
*118 dc_inst\.x4\.net4
*119 dc_inst\.x4\.net5
*120 dc_inst\.x4\.net6
*121 dc_inst\.x4\.net7
*122 dc_inst\.x4\.net8
*123 dc_inst\.x4\.net9
*124 dc_inst\.x5\.net1
*125 dc_inst\.x5\.net10
*126 dc_inst\.x5\.net11
*127 dc_inst\.x5\.net12
*128 dc_inst\.x5\.net13
*129 dc_inst\.x5\.net14
*130 dc_inst\.x5\.net15
*131 dc_inst\.x5\.net16
*132 dc_inst\.x5\.net17
*133 dc_inst\.x5\.net18
*134 dc_inst\.x5\.net19
*135 dc_inst\.x5\.net2
*136 dc_inst\.x5\.net3
*137 dc_inst\.x5\.net4
*138 dc_inst\.x5\.net5
*139 dc_inst\.x5\.net6
*140 dc_inst\.x5\.net7
*141 dc_inst\.x5\.net8
*142 dc_inst\.x5\.net9
*143 dc_inst\.x6\.net1
*144 dc_inst\.x6\.net10
*145 dc_inst\.x6\.net11
*146 dc_inst\.x6\.net12
*147 dc_inst\.x6\.net13
*148 dc_inst\.x6\.net14
*149 dc_inst\.x6\.net15
*150 dc_inst\.x6\.net16
*151 dc_inst\.x6\.net17
*152 dc_inst\.x6\.net18
*153 dc_inst\.x6\.net19
*154 dc_inst\.x6\.net2
*155 dc_inst\.x6\.net3
*156 dc_inst\.x6\.net4
*157 dc_inst\.x6\.net5
*158 dc_inst\.x6\.net6
*159 dc_inst\.x6\.net7
*160 dc_inst\.x6\.net8
*161 dc_inst\.x6\.net9
*162 dc_inst\.x7\.net1
*163 dc_inst\.x7\.net10
*164 dc_inst\.x7\.net11
*165 dc_inst\.x7\.net12
*166 dc_inst\.x7\.net13
*167 dc_inst\.x7\.net14
*168 dc_inst\.x7\.net15
*169 dc_inst\.x7\.net16
*170 dc_inst\.x7\.net17
*171 dc_inst\.x7\.net18
*172 dc_inst\.x7\.net19
*173 dc_inst\.x7\.net2
*174 dc_inst\.x7\.net3
*175 dc_inst\.x7\.net4
*176 dc_inst\.x7\.net5
*177 dc_inst\.x7\.net6
*178 dc_inst\.x7\.net7
*179 dc_inst\.x7\.net8
*180 dc_inst\.x7\.net9
*181 shadow_q
*182 FILLER_0_12
*183 FILLER_0_53
*184 FILLER_0_57
*185 FILLER_0_60
*186 FILLER_0_69
*187 FILLER_10_3
*188 FILLER_10_69
*189 FILLER_11_29
*190 FILLER_11_3
*191 FILLER_11_69
*192 FILLER_1_11
*193 FILLER_1_3
*194 FILLER_1_34
*195 FILLER_1_57
*196 FILLER_1_60
*197 FILLER_2_13
*198 FILLER_2_19
*199 FILLER_2_24
*200 FILLER_2_3
*201 FILLER_2_44
*202 FILLER_2_54
*203 FILLER_2_8
*204 FILLER_3_34
*205 FILLER_3_39
*206 FILLER_3_43
*207 FILLER_3_48
*208 FILLER_3_57
*209 FILLER_3_68
*210 FILLER_3_9
*211 FILLER_4_18
*212 FILLER_4_29
*213 FILLER_4_3
*214 FILLER_4_37
*215 FILLER_4_69
*216 FILLER_4_7
*217 FILLER_5_14
*218 FILLER_5_3
*219 FILLER_5_31
*220 FILLER_5_43
*221 FILLER_5_48
*222 FILLER_5_57
*223 FILLER_5_68
*224 FILLER_6_27
*225 FILLER_6_3
*226 FILLER_6_32
*227 FILLER_6_35
*228 FILLER_6_48
*229 FILLER_7_3
*230 FILLER_7_55
*231 FILLER_7_69
*232 FILLER_7_7
*233 FILLER_8_3
*234 FILLER_8_44
*235 FILLER_8_69
*236 FILLER_9_23
*237 FILLER_9_48
*238 FILLER_9_69
*239 PHY_EDGE_ROW_0_Left_12
*240 PHY_EDGE_ROW_0_Right_0
*241 PHY_EDGE_ROW_10_Left_22
*242 PHY_EDGE_ROW_10_Right_10
*243 PHY_EDGE_ROW_11_Left_23
*244 PHY_EDGE_ROW_11_Right_11
*245 PHY_EDGE_ROW_1_Left_13
*246 PHY_EDGE_ROW_1_Right_1
*247 PHY_EDGE_ROW_2_Left_14
*248 PHY_EDGE_ROW_2_Right_2
*249 PHY_EDGE_ROW_3_Left_15
*250 PHY_EDGE_ROW_3_Right_3
*251 PHY_EDGE_ROW_4_Left_16
*252 PHY_EDGE_ROW_4_Right_4
*253 PHY_EDGE_ROW_5_Left_17
*254 PHY_EDGE_ROW_5_Right_5
*255 PHY_EDGE_ROW_6_Left_18
*256 PHY_EDGE_ROW_6_Right_6
*257 PHY_EDGE_ROW_7_Left_19
*258 PHY_EDGE_ROW_7_Right_7
*259 PHY_EDGE_ROW_8_Left_20
*260 PHY_EDGE_ROW_8_Right_8
*261 PHY_EDGE_ROW_9_Left_21
*262 PHY_EDGE_ROW_9_Right_9
*263 TAP_TAPCELL_ROW_0_24
*264 TAP_TAPCELL_ROW_0_25
*265 TAP_TAPCELL_ROW_10_35
*266 TAP_TAPCELL_ROW_11_36
*267 TAP_TAPCELL_ROW_11_37
*268 TAP_TAPCELL_ROW_1_26
*269 TAP_TAPCELL_ROW_2_27
*270 TAP_TAPCELL_ROW_3_28
*271 TAP_TAPCELL_ROW_4_29
*272 TAP_TAPCELL_ROW_5_30
*273 TAP_TAPCELL_ROW_6_31
*274 TAP_TAPCELL_ROW_7_32
*275 TAP_TAPCELL_ROW_8_33
*276 TAP_TAPCELL_ROW_9_34
*277 _11_
*278 _12_
*279 _13_
*280 _14_
*281 _15_
*282 _16_
*283 _17_
*284 _18_
*285 _19_
*286 _20_
*287 _21_
*288 _22_
*289 _23_
*290 _24_
*291 _25_
*292 clkbuf_0_clk
*293 clkbuf_1_0__f_clk
*294 clkbuf_1_1__f_clk
*295 clkload0
*296 dc_inst\.x1\.x1
*297 dc_inst\.x1\.x10
*298 dc_inst\.x1\.x11
*299 dc_inst\.x1\.x12
*300 dc_inst\.x1\.x13
*301 dc_inst\.x1\.x14
*302 dc_inst\.x1\.x15
*303 dc_inst\.x1\.x16
*304 dc_inst\.x1\.x17
*305 dc_inst\.x1\.x18
*306 dc_inst\.x1\.x19
*307 dc_inst\.x1\.x2
*308 dc_inst\.x1\.x20
*309 dc_inst\.x1\.x3
*310 dc_inst\.x1\.x4
*311 dc_inst\.x1\.x5
*312 dc_inst\.x1\.x6
*313 dc_inst\.x1\.x7
*314 dc_inst\.x1\.x8
*315 dc_inst\.x1\.x9
*316 dc_inst\.x10
*317 dc_inst\.x2\.x1
*318 dc_inst\.x2\.x10
*319 dc_inst\.x2\.x11
*320 dc_inst\.x2\.x12
*321 dc_inst\.x2\.x13
*322 dc_inst\.x2\.x14
*323 dc_inst\.x2\.x15
*324 dc_inst\.x2\.x16
*325 dc_inst\.x2\.x17
*326 dc_inst\.x2\.x18
*327 dc_inst\.x2\.x19
*328 dc_inst\.x2\.x2
*329 dc_inst\.x2\.x20
*330 dc_inst\.x2\.x3
*331 dc_inst\.x2\.x4
*332 dc_inst\.x2\.x5
*333 dc_inst\.x2\.x6
*334 dc_inst\.x2\.x7
*335 dc_inst\.x2\.x8
*336 dc_inst\.x2\.x9
*337 dc_inst\.x3\.x1
*338 dc_inst\.x3\.x10
*339 dc_inst\.x3\.x11
*340 dc_inst\.x3\.x12
*341 dc_inst\.x3\.x13
*342 dc_inst\.x3\.x14
*343 dc_inst\.x3\.x15
*344 dc_inst\.x3\.x16
*345 dc_inst\.x3\.x17
*346 dc_inst\.x3\.x18
*347 dc_inst\.x3\.x19
*348 dc_inst\.x3\.x2
*349 dc_inst\.x3\.x20
*350 dc_inst\.x3\.x3
*351 dc_inst\.x3\.x4
*352 dc_inst\.x3\.x5
*353 dc_inst\.x3\.x6
*354 dc_inst\.x3\.x7
*355 dc_inst\.x3\.x8
*356 dc_inst\.x3\.x9
*357 dc_inst\.x4\.x1
*358 dc_inst\.x4\.x10
*359 dc_inst\.x4\.x11
*360 dc_inst\.x4\.x12
*361 dc_inst\.x4\.x13
*362 dc_inst\.x4\.x14
*363 dc_inst\.x4\.x15
*364 dc_inst\.x4\.x16
*365 dc_inst\.x4\.x17
*366 dc_inst\.x4\.x18
*367 dc_inst\.x4\.x19
*368 dc_inst\.x4\.x2
*369 dc_inst\.x4\.x20
*370 dc_inst\.x4\.x3
*371 dc_inst\.x4\.x4
*372 dc_inst\.x4\.x5
*373 dc_inst\.x4\.x6
*374 dc_inst\.x4\.x7
*375 dc_inst\.x4\.x8
*376 dc_inst\.x4\.x9
*377 dc_inst\.x5\.x1
*378 dc_inst\.x5\.x10
*379 dc_inst\.x5\.x11
*380 dc_inst\.x5\.x12
*381 dc_inst\.x5\.x13
*382 dc_inst\.x5\.x14
*383 dc_inst\.x5\.x15
*384 dc_inst\.x5\.x16
*385 dc_inst\.x5\.x17
*386 dc_inst\.x5\.x18
*387 dc_inst\.x5\.x19
*388 dc_inst\.x5\.x2
*389 dc_inst\.x5\.x20
*390 dc_inst\.x5\.x3
*391 dc_inst\.x5\.x4
*392 dc_inst\.x5\.x5
*393 dc_inst\.x5\.x6
*394 dc_inst\.x5\.x7
*395 dc_inst\.x5\.x8
*396 dc_inst\.x5\.x9
*397 dc_inst\.x6\.x1
*398 dc_inst\.x6\.x10
*399 dc_inst\.x6\.x11
*400 dc_inst\.x6\.x12
*401 dc_inst\.x6\.x13
*402 dc_inst\.x6\.x14
*403 dc_inst\.x6\.x15
*404 dc_inst\.x6\.x16
*405 dc_inst\.x6\.x17
*406 dc_inst\.x6\.x18
*407 dc_inst\.x6\.x19
*408 dc_inst\.x6\.x2
*409 dc_inst\.x6\.x20
*410 dc_inst\.x6\.x3
*411 dc_inst\.x6\.x4
*412 dc_inst\.x6\.x5
*413 dc_inst\.x6\.x6
*414 dc_inst\.x6\.x7
*415 dc_inst\.x6\.x8
*416 dc_inst\.x6\.x9
*417 dc_inst\.x7\.x1
*418 dc_inst\.x7\.x10
*419 dc_inst\.x7\.x11
*420 dc_inst\.x7\.x12
*421 dc_inst\.x7\.x13
*422 dc_inst\.x7\.x14
*423 dc_inst\.x7\.x15
*424 dc_inst\.x7\.x16
*425 dc_inst\.x7\.x17
*426 dc_inst\.x7\.x18
*427 dc_inst\.x7\.x19
*428 dc_inst\.x7\.x2
*429 dc_inst\.x7\.x20
*430 dc_inst\.x7\.x3
*431 dc_inst\.x7\.x4
*432 dc_inst\.x7\.x5
*433 dc_inst\.x7\.x6
*434 dc_inst\.x7\.x7
*435 dc_inst\.x7\.x8
*436 dc_inst\.x7\.x9
*437 dc_inst\.x8
*438 dc_inst\.x9

*PORTS
clk I
delay_sel[0] I
delay_sel[1] I
delay_sel[2] I
path[0] I
path[1] I
path[2] I
path[3] I
path[4] I
path[5] I
path[6] I
path[7] I
path_sel[0] I
path_sel[1] I
path_sel[2] I
rst I
se I
tdi I
tdo O

*D_NET *3 0.001435
*CONN
*P clk I
*I *292:A I *D sky130_fd_sc_hd__clkbuf_16
*CAP
1 clk 0.000682175
2 *292:A 0
3 *3:11 0.000682175
4 *3:11 *162:12 5.67058e-05
5 *3:11 *164:10 1.39431e-05
*RES
1 clk *3:11 28.8579 
2 *3:11 *292:A 23 
*END

*D_NET *4 0.00341042
*CONN
*P delay_sel[0] I
*I *438:S0 I *D sky130_fd_sc_hd__mux4_1
*I *437:S0 I *D sky130_fd_sc_hd__mux4_1
*CAP
1 delay_sel[0] 0.000566458
2 *438:S0 0
3 *437:S0 0.000815643
4 *4:13 0.0013821
5 *437:S0 *437:A1 2.64616e-05
6 *437:S0 *437:S1 0.000182813
7 *437:S0 *438:A2 1.92408e-05
8 *437:S0 *5:17 1.89494e-05
9 *437:S0 *42:23 2.18409e-05
10 *4:13 *5:17 0.000148008
11 *4:13 *42:23 0.000228909
12 *4:13 *43:10 0
13 *4:13 *162:12 0
*RES
1 delay_sel[0] *4:13 31.5124 
2 *4:13 *437:S0 34.1443 
3 *4:13 *438:S0 23 
*END

*D_NET *5 0.00465078
*CONN
*P delay_sel[1] I
*I *437:S1 I *D sky130_fd_sc_hd__mux4_1
*I *438:S1 I *D sky130_fd_sc_hd__mux4_1
*CAP
1 delay_sel[1] 0.00125061
2 *437:S1 0.000546099
3 *438:S1 0
4 *5:23 1.87595e-05
5 *5:17 0.00181547
6 *437:S1 *437:A1 5.3304e-05
7 *437:S1 *437:A2 3.57395e-05
8 *437:S1 *41:8 7.87243e-05
9 *437:S1 *46:14 0.000113648
10 *437:S1 *47:10 0.000110588
11 *5:17 *438:A2 9.81081e-06
12 *5:17 *36:14 0
13 *5:17 *42:23 0.000106662
14 *5:17 *164:10 1.53024e-05
15 *5:17 *165:8 0
16 *5:17 *166:8 4.83778e-05
17 *5:23 *45:16 3.31127e-05
18 *5:23 *173:10 6.48049e-05
19 *437:S0 *437:S1 0.000182813
20 *437:S0 *5:17 1.89494e-05
21 *4:13 *5:17 0.000148008
*RES
1 delay_sel[1] *5:17 42.7986 
2 *5:17 *5:23 30.8493 
3 *5:23 *438:S1 23 
4 *5:17 *437:S1 34.7864 
*END

*D_NET *6 0.00407609
*CONN
*P delay_sel[2] I
*I *316:S I *D sky130_fd_sc_hd__mux2_1
*CAP
1 delay_sel[2] 0.00181929
2 *316:S 0
3 *6:15 0.00181929
4 *6:15 *278:A 7.63193e-05
5 *6:15 *22:10 0
6 *6:15 *23:10 0.000107423
7 *6:15 *37:23 0.000244526
8 *6:15 *174:16 9.24795e-06
*RES
1 delay_sel[2] *6:15 42.9751 
2 *6:15 *316:S 23 
*END

*D_NET *7 0.00157488
*CONN
*P path[0] I
*I *283:A1 I *D sky130_fd_sc_hd__o21ba_2
*CAP
1 path[0] 0.000741853
2 *283:A1 0
3 *7:11 0.000741853
4 *7:11 *282:A_N 9.1176e-05
5 *7:11 *15:9 0
6 *7:11 *15:26 0
*RES
1 path[0] *7:11 35.9659 
2 *7:11 *283:A1 23 
*END

*D_NET *8 0.000775556
*CONN
*P path[1] I
*I *282:A_N I *D sky130_fd_sc_hd__nand2b_2
*CAP
1 path[1] 0.00034219
2 *282:A_N 0.00034219
3 *282:A_N *284:A0 0
4 *282:A_N *15:9 0
5 *282:A_N *15:26 0
6 *7:11 *282:A_N 9.1176e-05
*RES
1 path[1] *282:A_N 49.2777 
*END

*D_NET *9 0.00067096
*CONN
*P path[2] I
*I *284:A0 I *D sky130_fd_sc_hd__mux2_1
*CAP
1 path[2] 0.000318196
2 *284:A0 0.000318196
3 *284:A0 *10:11 0
4 *284:A0 *15:30 9.86551e-06
5 *284:A0 *30:8 2.47015e-05
6 *282:A_N *284:A0 0
*RES
1 path[2] *284:A0 47.3365 
*END

*D_NET *10 0.00160069
*CONN
*P path[3] I
*I *284:A1 I *D sky130_fd_sc_hd__mux2_1
*CAP
1 path[3] 0.000479346
2 *284:A1 0
3 *10:11 0.000479346
4 *10:11 *281:A0 0
5 *10:11 *281:S0 0.000433914
6 *10:11 *15:30 1.14452e-05
7 *10:11 *30:8 0.000114645
8 *10:11 *32:10 8.19985e-05
9 *10:11 *50:12 0
10 *284:A0 *10:11 0
*RES
1 path[3] *10:11 29.885 
2 *10:11 *284:A1 23 
*END

*D_NET *11 0.000906117
*CONN
*P path[4] I
*I *281:A0 I *D sky130_fd_sc_hd__mux4_2
*CAP
1 path[4] 0.000420656
2 *281:A0 0.000420656
3 *281:A0 *281:S0 6.48049e-05
4 *281:A0 *12:17 0
5 *281:A0 *60:10 0
6 *10:11 *281:A0 0
*RES
1 path[4] *281:A0 49.3635 
*END

*D_NET *12 0.00236701
*CONN
*P path[5] I
*I *281:A1 I *D sky130_fd_sc_hd__mux4_2
*CAP
1 path[5] 0.000945117
2 *281:A1 0
3 *12:17 0.000945117
4 *12:17 *281:A3 5.9654e-05
5 *12:17 *13:13 0
6 *12:17 *60:10 0.000125904
7 *12:17 *90:10 0
8 *12:17 *91:12 0.000291216
9 *12:17 *96:8 0
10 *12:17 *100:10 0
11 *281:A0 *12:17 0
*RES
1 path[5] *12:17 34.6746 
2 *12:17 *281:A1 23 
*END

*D_NET *13 0.0034062
*CONN
*P path[6] I
*I *281:A2 I *D sky130_fd_sc_hd__mux4_2
*CAP
1 path[6] 0.00152307
2 *281:A2 0
3 *13:13 0.00152307
4 *13:13 *281:S1 1.01436e-05
5 *13:13 *337:A 0
6 *13:13 *14:15 0
7 *13:13 *19:13 0
8 *13:13 *24:10 0
9 *13:13 *27:8 0
10 *13:13 *40:8 0
11 *13:13 *59:10 5.67058e-05
12 *13:13 *60:10 0
13 *13:13 *61:10 9.98788e-05
14 *13:13 *86:10 0
15 *13:13 *93:10 0
16 *13:13 *96:8 6.33614e-05
17 *13:13 *98:10 0
18 *13:13 *100:10 8.76088e-05
19 *13:13 *103:8 0
20 *13:13 *181:10 4.23714e-05
21 *12:17 *13:13 0
*RES
1 path[6] *13:13 42.0152 
2 *13:13 *281:A2 23 
*END

*D_NET *14 0.00389929
*CONN
*P path[7] I
*I *281:A3 I *D sky130_fd_sc_hd__mux4_2
*CAP
1 path[7] 0.00122877
2 *281:A3 0.000644244
3 *14:15 0.00187302
4 *281:A3 *281:S0 3.69005e-05
5 *281:A3 *281:S1 5.67058e-05
6 *14:15 *281:S0 0
7 *14:15 *20:11 0
8 *14:15 *88:10 0
9 *14:15 *89:10 0
10 *12:17 *281:A3 5.9654e-05
11 *13:13 *14:15 0
*RES
1 path[7] *14:15 45.9342 
2 *14:15 *281:A3 34.31 
*END

*D_NET *15 0.0066192
*CONN
*P path_sel[0] I
*I *283:A2 I *D sky130_fd_sc_hd__o21ba_2
*I *281:S0 I *D sky130_fd_sc_hd__mux4_2
*I *284:S I *D sky130_fd_sc_hd__mux2_1
*I *282:B I *D sky130_fd_sc_hd__nand2b_2
*CAP
1 path_sel[0] 0.0018638
2 *283:A2 0
3 *281:S0 0.000554403
4 *284:S 0
5 *282:B 0
6 *15:30 0.000690274
7 *15:26 0.000393302
8 *15:9 0.00212123
9 *281:S0 *28:8 0.000164282
10 *281:S0 *32:10 5.95199e-05
11 *281:S0 *60:10 0
12 *15:26 *29:8 0.000169674
13 *15:30 *29:8 0
14 *15:30 *30:8 4.57798e-05
15 *281:A0 *281:S0 6.48049e-05
16 *281:A3 *281:S0 3.69005e-05
17 *282:A_N *15:9 0
18 *282:A_N *15:26 0
19 *284:A0 *15:30 9.86551e-06
20 *7:11 *15:9 0
21 *7:11 *15:26 0
22 *10:11 *281:S0 0.000433914
23 *10:11 *15:30 1.14452e-05
24 *14:15 *281:S0 0
*RES
1 path_sel[0] *15:9 19.1609 
2 *15:9 *282:B 38 
3 *15:9 *15:26 20.655 
4 *15:26 *15:30 17.9621 
5 *15:30 *284:S 38 
6 *15:30 *281:S0 27.4389 
7 *15:26 *283:A2 23 
*END

*D_NET *16 0.00740303
*CONN
*P path_sel[1] I
*I *281:S1 I *D sky130_fd_sc_hd__mux4_2
*I *285:B2 I *D sky130_fd_sc_hd__a221o_2
*I *283:B1_N I *D sky130_fd_sc_hd__o21ba_2
*CAP
1 path_sel[1] 0.00220966
2 *281:S1 0.000454816
3 *285:B2 0.000115019
4 *283:B1_N 0.000220814
5 *16:20 0.000869735
6 *16:7 0.00273037
7 *281:S1 *285:C1 8.92841e-05
8 *281:S1 *50:12 0
9 *281:S1 *59:10 0.000425193
10 *281:S1 *60:10 6.7177e-06
11 *281:S1 *61:10 4.73585e-05
12 *281:S1 *65:10 0
13 *281:S1 *66:8 0
14 *281:S1 *72:8 0
15 *283:B1_N *124:10 1.05441e-05
16 *285:B2 *285:C1 5.67058e-05
17 *285:B2 *313:A 5.15795e-05
18 *16:20 *29:8 0
19 *16:20 *49:8 0
20 *16:20 *50:12 0
21 *16:20 *72:8 0
22 *16:20 *126:8 4.83778e-05
23 *16:20 *127:8 0
24 *281:A3 *281:S1 5.67058e-05
25 *13:13 *281:S1 1.01436e-05
*RES
1 path_sel[1] *16:7 13.3088 
2 *16:7 *283:B1_N 41.8011 
3 *16:7 *16:20 5.25107 
4 *16:20 *285:B2 40.698 
5 *16:20 *281:S1 47.3421 
*END

*D_NET *17 0.0057658
*CONN
*P path_sel[2] I
*I *277:A I *D sky130_fd_sc_hd__inv_2
*I *285:C1 I *D sky130_fd_sc_hd__a221o_2
*CAP
1 path_sel[2] 0.00228359
2 *277:A 0.00010209
3 *285:C1 0.000139344
4 *17:7 0.00252503
5 *277:A *59:10 0.000197261
6 *277:A *60:10 0.000191841
7 *277:A *62:10 5.79413e-06
8 *285:C1 *313:A 2.93845e-05
9 *285:C1 *50:12 2.97176e-05
10 *285:C1 *59:10 5.04995e-05
11 *285:C1 *62:10 2.43903e-05
12 *285:C1 *64:16 4.08641e-05
13 *281:S1 *285:C1 8.92841e-05
14 *285:B2 *285:C1 5.67058e-05
*RES
1 path_sel[2] *17:7 13.4805 
2 *17:7 *285:C1 41.7596 
3 *17:7 *277:A 40.7861 
*END

*D_NET *18 0.00614175
*CONN
*P rst I
*I *287:A I *D sky130_fd_sc_hd__inv_2
*I *288:A I *D sky130_fd_sc_hd__inv_2
*I *278:A I *D sky130_fd_sc_hd__inv_2
*CAP
1 rst 0.000548316
2 *287:A 0
3 *288:A 0
4 *278:A 0.000385081
5 *18:39 0.000725582
6 *18:9 0.00063916
7 *18:7 0.00152798
8 *278:A *316:A0 2.93335e-05
9 *278:A *21:12 6.28695e-05
10 *278:A *33:10 0.000139982
11 *278:A *174:16 0.000323489
12 *18:7 *35:12 0
13 *18:9 *21:12 4.5882e-05
14 *18:9 *25:8 0.000114083
15 *18:9 *33:10 0
16 *18:9 *35:12 0
17 *18:39 *294:A 0.000395729
18 *18:39 *295:A 4.65096e-05
19 *18:39 *19:13 0.00052072
20 *18:39 *20:11 0.00010655
21 *18:39 *22:10 7.13587e-05
22 *18:39 *24:10 3.71369e-05
23 *18:39 *35:12 5.50106e-05
24 *18:39 *37:8 0.000290657
25 *6:15 *278:A 7.63193e-05
*RES
1 rst *18:7 11.5586 
2 *18:7 *18:9 5.42714 
3 *18:9 *278:A 47.4664 
4 *18:9 *288:A 38 
5 *18:7 *18:39 34.8443 
6 *18:39 *287:A 23 
*END

*D_NET *19 0.00238211
*CONN
*P se I
*I *280:S I *D sky130_fd_sc_hd__mux2_1
*CAP
1 se 0.000794959
2 *280:S 0
3 *19:13 0.000794959
4 *19:13 *22:10 0.000271476
5 *13:13 *19:13 0
6 *18:39 *19:13 0.00052072
*RES
1 se *19:13 33.7464 
2 *19:13 *280:S 23 
*END

*D_NET *20 0.0015779
*CONN
*P tdi I
*I *280:A1 I *D sky130_fd_sc_hd__mux2_1
*CAP
1 tdi 0.000733101
2 *280:A1 0
3 *20:11 0.000733101
4 *20:11 *24:10 5.14746e-06
5 *14:15 *20:11 0
6 *18:39 *20:11 0.00010655
*RES
1 tdi *20:11 29.4586 
2 *20:11 *280:A1 23 
*END

*D_NET *21 0.00571549
*CONN
*P tdo O
*I *291:Q O *D sky130_fd_sc_hd__dfrtp_2
*CAP
1 tdo 0.000322689
2 *291:Q 0.000126393
3 *21:12 0.00209602
4 *21:8 0.00189972
5 *21:8 *22:18 1.32289e-05
6 *21:8 *37:23 3.7122e-06
7 *21:12 *289:D 0.000185936
8 *21:12 *317:A 8.37349e-05
9 *21:12 *437:A1 1.7495e-05
10 *21:12 *33:10 5.19048e-05
11 *21:12 *38:27 0.000204125
12 *21:12 *43:29 0
13 *21:12 *56:10 0
14 *21:12 *109:10 8.16253e-05
15 *21:12 *112:10 0
16 *21:12 *121:10 7.91493e-05
17 *21:12 *123:10 0.000138143
18 *21:12 *139:10 0
19 *21:12 *140:8 0
20 *21:12 *140:24 4.25335e-05
21 *21:12 *145:10 0
22 *21:12 *148:10 0.000166522
23 *21:12 *151:10 9.3813e-05
24 *21:12 *173:10 0
25 *278:A *21:12 6.28695e-05
26 *18:9 *21:12 4.5882e-05
*RES
1 *291:Q *21:8 39.5743 
2 *21:8 *21:12 48.2464 
3 *21:12 tdo 21.5457 
*END

*D_NET *22 0.00400635
*CONN
*I *291:D I *D sky130_fd_sc_hd__dfrtp_2
*I *280:X O *D sky130_fd_sc_hd__mux2_1
*CAP
1 *291:D 0
2 *280:X 0.000357795
3 *22:18 0.00132023
4 *22:10 0.00167803
5 *22:18 *279:A 5.37348e-06
6 *22:18 *290:RESET_B 3.66316e-05
7 *22:18 *291:RESET_B 2.52027e-05
8 *22:18 *37:23 0.000227027
9 *6:15 *22:10 0
10 *18:39 *22:10 7.13587e-05
11 *19:13 *22:10 0.000271476
12 *21:8 *22:18 1.32289e-05
*RES
1 *280:X *22:10 43.6343 
2 *22:10 *22:18 34.2436 
3 *22:18 *291:D 23 
*END

*D_NET *23 0.000540618
*CONN
*I *289:RESET_B I *D sky130_fd_sc_hd__dfrtp_2
*I *278:Y O *D sky130_fd_sc_hd__inv_2
*CAP
1 *289:RESET_B 0
2 *278:Y 0.000188129
3 *23:10 0.000188129
4 *23:10 *289:D 0
5 *23:10 *174:16 5.69371e-05
6 *6:15 *23:10 0.000107423
*RES
1 *278:Y *23:10 42.4121 
2 *23:10 *289:RESET_B 15 
*END

*D_NET *24 0.00214586
*CONN
*I *290:RESET_B I *D sky130_fd_sc_hd__dfrtp_2
*I *287:Y O *D sky130_fd_sc_hd__inv_2
*CAP
1 *290:RESET_B 0.000656609
2 *287:Y 0.000227784
3 *24:10 0.000884393
4 *290:RESET_B *279:A 0.000124934
5 *290:RESET_B *355:A 2.93845e-05
6 *24:10 *27:8 4.83778e-05
7 *24:10 *86:10 6.48142e-05
8 *24:10 *103:8 3.0647e-05
9 *13:13 *24:10 0
10 *18:39 *24:10 3.71369e-05
11 *20:11 *24:10 5.14746e-06
12 *22:18 *290:RESET_B 3.66316e-05
*RES
1 *287:Y *24:10 42.5364 
2 *24:10 *290:RESET_B 24.7668 
*END

*D_NET *25 0.000389303
*CONN
*I *291:RESET_B I *D sky130_fd_sc_hd__dfrtp_2
*I *288:Y O *D sky130_fd_sc_hd__inv_2
*CAP
1 *291:RESET_B 5.70618e-05
2 *288:Y 4.88775e-05
3 *25:8 0.000105939
4 *25:8 *35:12 3.81391e-05
5 *18:9 *25:8 0.000114083
6 *22:18 *291:RESET_B 2.52027e-05
*RES
1 *288:Y *25:8 39.5536 
2 *25:8 *291:RESET_B 16.0254 
*END

*D_NET *26 0.000539215
*CONN
*I *286:A1 I *D sky130_fd_sc_hd__o21a_2
*I *277:Y O *D sky130_fd_sc_hd__inv_2
*CAP
1 *286:A1 0.000194704
2 *277:Y 0.000194704
3 *286:A1 *286:A2 5.50049e-05
4 *286:A1 *38:10 7.88926e-05
5 *286:A1 *62:10 1.59094e-05
*RES
1 *277:Y *286:A1 49.9564 
*END

*D_NET *27 0.000369372
*CONN
*I *280:A0 I *D sky130_fd_sc_hd__mux2_1
*I *279:X O *D sky130_fd_sc_hd__xor2_2
*CAP
1 *280:A0 0
2 *279:X 0.000160497
3 *27:8 0.000160497
4 *13:13 *27:8 0
5 *24:10 *27:8 4.83778e-05
*RES
1 *279:X *27:8 40.9621 
2 *27:8 *280:A0 38 
*END

*D_NET *28 0.000541503
*CONN
*I *286:A2 I *D sky130_fd_sc_hd__o21a_2
*I *281:X O *D sky130_fd_sc_hd__mux4_2
*CAP
1 *286:A2 6.46083e-05
2 *281:X 9.64999e-05
3 *28:8 0.000161108
4 *281:S0 *28:8 0.000164282
5 *286:A1 *286:A2 5.50049e-05
*RES
1 *281:X *28:8 40.2579 
2 *28:8 *286:A2 39.0979 
*END

*D_NET *29 0.00127181
*CONN
*I *285:A1 I *D sky130_fd_sc_hd__a221o_2
*I *282:Y O *D sky130_fd_sc_hd__nand2b_2
*CAP
1 *285:A1 0
2 *282:Y 0.000272255
3 *29:8 0.000272255
4 *29:8 *30:8 0.000387957
5 *29:8 *31:10 0.000169674
6 *29:8 *124:10 0
7 *15:26 *29:8 0.000169674
8 *15:30 *29:8 0
9 *16:20 *29:8 0
*RES
1 *282:Y *29:8 45.8921 
2 *29:8 *285:A1 38 
*END

*D_NET *30 0.000836567
*CONN
*I *285:A2 I *D sky130_fd_sc_hd__a221o_2
*I *283:X O *D sky130_fd_sc_hd__o21ba_2
*CAP
1 *285:A2 1.13189e-05
2 *283:X 0.000116784
3 *30:8 0.000128103
4 *285:A2 *32:10 7.27694e-06
5 *284:A0 *30:8 2.47015e-05
6 *10:11 *30:8 0.000114645
7 *15:30 *30:8 4.57798e-05
8 *29:8 *30:8 0.000387957
*RES
1 *283:X *30:8 43.075 
2 *30:8 *285:A2 38.1709 
*END

*D_NET *31 0.000487698
*CONN
*I *285:B1 I *D sky130_fd_sc_hd__a221o_2
*I *284:X O *D sky130_fd_sc_hd__mux2_1
*CAP
1 *285:B1 0
2 *284:X 0.000102744
3 *31:10 0.000102744
4 *31:10 *50:12 0.000112537
5 *29:8 *31:10 0.000169674
*RES
1 *284:X *31:10 40.8793 
2 *31:10 *285:B1 38 
*END

*D_NET *32 0.000814433
*CONN
*I *286:B1 I *D sky130_fd_sc_hd__o21a_2
*I *285:X O *D sky130_fd_sc_hd__a221o_2
*CAP
1 *286:B1 0
2 *285:X 0.000311633
3 *32:10 0.000311633
4 *32:10 *50:12 4.23714e-05
5 *32:10 *60:10 0
6 *32:10 *62:10 0
7 *281:S0 *32:10 5.95199e-05
8 *285:A2 *32:10 7.27694e-06
9 *10:11 *32:10 8.19985e-05
*RES
1 *285:X *32:10 43.8207 
2 *32:10 *286:B1 38 
*END

*D_NET *33 0.000942235
*CONN
*I *290:D I *D sky130_fd_sc_hd__dfrtp_2
*I *316:X O *D sky130_fd_sc_hd__mux2_1
*CAP
1 *290:D 0
2 *316:X 0.00030535
3 *33:10 0.00030535
4 *33:10 *289:D 0.000139647
5 *278:A *33:10 0.000139982
6 *18:9 *33:10 0
7 *21:12 *33:10 5.19048e-05
*RES
1 *316:X *33:10 43.945 
2 *33:10 *290:D 38 
*END

*D_NET *34 0.000272321
*CONN
*I *279:A I *D sky130_fd_sc_hd__xor2_2
*I *290:Q O *D sky130_fd_sc_hd__dfrtp_2
*CAP
1 *279:A 7.10066e-05
2 *290:Q 7.10066e-05
3 *290:RESET_B *279:A 0.000124934
4 *22:18 *279:A 5.37348e-06
*RES
1 *290:Q *279:A 48.0714 
*END

*D_NET *35 0.00169508
*CONN
*I *294:A I *D sky130_fd_sc_hd__clkbuf_16
*I *293:A I *D sky130_fd_sc_hd__clkbuf_16
*I *292:X O *D sky130_fd_sc_hd__clkbuf_16
*CAP
1 *294:A 0.000127331
2 *293:A 0
3 *292:X 0
4 *35:12 0.000424574
5 *35:4 0.000551905
6 *294:A *295:A 0.000102389
7 *18:7 *35:12 0
8 *18:9 *35:12 0
9 *18:39 *294:A 0.000395729
10 *18:39 *35:12 5.50106e-05
11 *25:8 *35:12 3.81391e-05
*RES
1 *292:X *35:4 23 
2 *35:4 *35:12 37.9543 
3 *35:12 *293:A 23 
4 *35:4 *294:A 27.4329 
*END

*D_NET *36 0.00156416
*CONN
*I *289:CLK I *D sky130_fd_sc_hd__dfrtp_2
*I *291:CLK I *D sky130_fd_sc_hd__dfrtp_2
*I *293:X O *D sky130_fd_sc_hd__clkbuf_16
*CAP
1 *289:CLK 0.000518506
2 *291:CLK 0
3 *293:X 2.34823e-05
4 *36:14 0.00015203
5 *36:6 0.000694018
6 *36:14 *162:12 0
7 *36:14 *164:10 4.21594e-06
8 *36:14 *165:8 0.000171906
9 *5:17 *36:14 0
*RES
1 *293:X *36:6 23.4971 
2 *36:6 *36:14 33.5836 
3 *36:14 *291:CLK 23 
4 *36:6 *289:CLK 32.1971 
*END

*D_NET *37 0.00232943
*CONN
*I *290:CLK I *D sky130_fd_sc_hd__dfrtp_2
*I *295:A I *D sky130_fd_sc_hd__clkbuf_4
*I *294:X O *D sky130_fd_sc_hd__clkbuf_16
*CAP
1 *290:CLK 0
2 *295:A 9.74101e-05
3 *294:X 0.000298833
4 *37:23 0.000311064
5 *37:8 0.000707307
6 *294:A *295:A 0.000102389
7 *6:15 *37:23 0.000244526
8 *18:39 *295:A 4.65096e-05
9 *18:39 *37:8 0.000290657
10 *21:8 *37:23 3.7122e-06
11 *22:18 *37:23 0.000227027
*RES
1 *294:X *37:8 29.3593 
2 *37:8 *295:A 25.0507 
3 *37:8 *37:23 37.7471 
4 *37:23 *290:CLK 23 
*END

*D_NET *38 0.00448283
*CONN
*I *437:A0 I *D sky130_fd_sc_hd__mux4_1
*I *289:D I *D sky130_fd_sc_hd__dfrtp_2
*I *296:A I *D sky130_fd_sc_hd__buf_1
*I *286:X O *D sky130_fd_sc_hd__o21a_2
*CAP
1 *437:A0 6.46094e-05
2 *289:D 0.000240204
3 *296:A 0
4 *286:X 0.000623992
5 *38:27 0.000899485
6 *38:12 0.000594672
7 *38:10 0.000623992
8 *289:D *46:14 8.62073e-06
9 *289:D *47:10 2.5415e-05
10 *289:D *175:10 0
11 *437:A0 *437:A1 1.01436e-05
12 *38:10 *61:10 0
13 *38:10 *62:10 1.31632e-05
14 *38:27 *327:A 0.000188927
15 *38:27 *437:A1 0.000161121
16 *38:27 *116:10 1.39431e-05
17 *38:27 *175:18 0.000405947
18 *286:A1 *38:10 7.88926e-05
19 *21:12 *289:D 0.000185936
20 *21:12 *38:27 0.000204125
21 *23:10 *289:D 0
22 *33:10 *289:D 0.000139647
*RES
1 *286:X *38:10 46.2443 
2 *38:10 *38:12 15 
3 *38:12 *296:A 23 
4 *38:12 *38:27 28.4539 
5 *38:27 *289:D 43.8725 
6 *38:27 *437:A0 39.2946 
*END

*D_NET *39 0.00218103
*CONN
*I *437:A1 I *D sky130_fd_sc_hd__mux4_1
*I *317:A I *D sky130_fd_sc_hd__buf_1
*I *308:X O *D sky130_fd_sc_hd__buf_2
*CAP
1 *437:A1 0.000392122
2 *317:A 0.000170406
3 *308:X 7.96943e-05
4 *39:8 0.000642222
5 *317:A *372:A 5.73309e-05
6 *317:A *56:10 1.35764e-05
7 *317:A *57:10 0.000137594
8 *317:A *119:14 0
9 *317:A *148:10 4.6318e-06
10 *437:A1 *148:10 4.38808e-05
11 *437:A1 *151:10 0.00025307
12 *437:A1 *175:10 0
13 *39:8 *305:A 3.42479e-05
14 *437:A0 *437:A1 1.01436e-05
15 *437:S0 *437:A1 2.64616e-05
16 *437:S1 *437:A1 5.3304e-05
17 *21:12 *317:A 8.37349e-05
18 *21:12 *437:A1 1.7495e-05
19 *38:27 *437:A1 0.000161121
*RES
1 *308:X *39:8 39.0979 
2 *39:8 *317:A 42.2879 
3 *39:8 *437:A1 46.9279 
*END

*D_NET *40 0.00103169
*CONN
*I *337:A I *D sky130_fd_sc_hd__buf_1
*I *437:A2 I *D sky130_fd_sc_hd__mux4_1
*I *329:X O *D sky130_fd_sc_hd__buf_2
*CAP
1 *337:A 0.000177692
2 *437:A2 0.000150281
3 *329:X 0.000140447
4 *40:8 0.00046842
5 *337:A *93:10 4.6318e-06
6 *337:A *97:10 3.46181e-05
7 *337:A *98:10 0
8 *337:A *175:10 0
9 *437:A2 *46:14 1.98598e-05
10 *40:8 *61:10 0
11 *437:S1 *437:A2 3.57395e-05
12 *13:13 *337:A 0
13 *13:13 *40:8 0
*RES
1 *329:X *40:8 40.2579 
2 *40:8 *437:A2 40.4339 
3 *40:8 *337:A 41.2314 
*END

*D_NET *41 0.00149828
*CONN
*I *437:A3 I *D sky130_fd_sc_hd__mux4_1
*I *357:A I *D sky130_fd_sc_hd__buf_1
*I *349:X O *D sky130_fd_sc_hd__buf_2
*CAP
1 *437:A3 4.58106e-05
2 *357:A 0.000136308
3 *349:X 0.000410326
4 *41:8 0.000592444
5 *357:A *175:10 8.62876e-05
6 *437:A3 *175:10 8.02348e-05
7 *41:8 *348:A 4.39278e-05
8 *41:8 *46:14 2.4218e-05
9 *437:S1 *41:8 7.87243e-05
*RES
1 *349:X *41:8 43.8621 
2 *41:8 *357:A 40.2579 
3 *41:8 *437:A3 39.2014 
*END

*D_NET *42 0.00294674
*CONN
*I *438:A0 I *D sky130_fd_sc_hd__mux4_1
*I *377:A I *D sky130_fd_sc_hd__buf_1
*I *369:X O *D sky130_fd_sc_hd__buf_2
*CAP
1 *438:A0 0
2 *377:A 0.000173758
3 *369:X 0
4 *42:23 0.0007315
5 *42:6 0.000905258
6 *377:A *112:10 0
7 *377:A *113:8 0
8 *377:A *140:8 0
9 *377:A *158:10 0.000277129
10 *42:23 *417:A 4.3407e-05
11 *42:23 *438:A2 7.44018e-05
12 *42:23 *134:8 0
13 *42:23 *140:8 0
14 *42:23 *145:10 7.03766e-05
15 *42:23 *158:10 0.000284572
16 *42:23 *162:12 0
17 *42:23 *175:18 2.89256e-05
18 *42:23 *177:10 0
19 *437:S0 *42:23 2.18409e-05
20 *4:13 *42:23 0.000228909
21 *5:17 *42:23 0.000106662
*RES
1 *369:X *42:6 38 
2 *42:6 *377:A 42.2879 
3 *42:6 *42:23 31.1779 
4 *42:23 *438:A0 23 
*END

*D_NET *43 0.00203919
*CONN
*I *397:A I *D sky130_fd_sc_hd__buf_1
*I *438:A1 I *D sky130_fd_sc_hd__mux4_1
*I *389:X O *D sky130_fd_sc_hd__buf_2
*CAP
1 *397:A 0
2 *438:A1 0
3 *389:X 0
4 *43:29 0.000399254
5 *43:10 0.000113039
6 *43:4 0.000512293
7 *43:10 *162:12 6.93553e-05
8 *43:10 *175:18 0
9 *43:29 *409:A 1.37232e-05
10 *43:29 *417:A 0.000136486
11 *43:29 *432:A 0.000207914
12 *43:29 *438:A2 6.16531e-05
13 *43:29 *44:8 5.3304e-05
14 *43:29 *163:10 0.000207381
15 *43:29 *173:10 6.33614e-05
16 *43:29 *175:18 8.22123e-05
17 *43:29 *177:10 0.000119215
18 *4:13 *43:10 0
19 *21:12 *43:29 0
*RES
1 *389:X *43:4 23 
2 *43:4 *43:10 32.2579 
3 *43:10 *438:A1 23 
4 *43:4 *43:29 40.3157 
5 *43:29 *397:A 23 
*END

*D_NET *44 0.00141519
*CONN
*I *438:A2 I *D sky130_fd_sc_hd__mux4_1
*I *417:A I *D sky130_fd_sc_hd__buf_1
*I *409:X O *D sky130_fd_sc_hd__buf_2
*CAP
1 *438:A2 0.000200006
2 *417:A 0.000152847
3 *409:X 4.99221e-05
4 *44:8 0.000402776
5 *417:A *154:14 7.73389e-05
6 *417:A *173:10 5.41288e-05
7 *438:A2 *45:16 1.03876e-05
8 *438:A2 *173:10 6.94789e-05
9 *437:S0 *438:A2 1.92408e-05
10 *5:17 *438:A2 9.81081e-06
11 *42:23 *417:A 4.3407e-05
12 *42:23 *438:A2 7.44018e-05
13 *43:29 *417:A 0.000136486
14 *43:29 *438:A2 6.16531e-05
15 *43:29 *44:8 5.3304e-05
*RES
1 *409:X *44:8 38.6214 
2 *44:8 *417:A 41.9564 
3 *44:8 *438:A2 42.8161 
*END

*D_NET *45 0.000815968
*CONN
*I *438:A3 I *D sky130_fd_sc_hd__mux4_1
*I *429:X O *D sky130_fd_sc_hd__buf_1
*CAP
1 *438:A3 0
2 *429:X 0.000327937
3 *45:16 0.000327937
4 *45:16 *428:A 2.64616e-05
5 *45:16 *162:12 0
6 *45:16 *170:12 1.09607e-05
7 *45:16 *172:14 4.26834e-05
8 *45:16 *173:10 3.6489e-05
9 *438:A2 *45:16 1.03876e-05
10 *5:23 *45:16 3.31127e-05
*RES
1 *429:X *45:16 43.3443 
2 *45:16 *438:A3 38 
*END

*D_NET *46 0.00179206
*CONN
*I *316:A0 I *D sky130_fd_sc_hd__mux2_1
*I *437:X O *D sky130_fd_sc_hd__mux4_1
*CAP
1 *316:A0 1.49611e-05
2 *437:X 0.000684221