* NGSPICE file created from rca.ext - technology: sky130A

* Black-box entry subcircuit for sky130_fd_sc_hd__decap_3 abstract view
.subckt sky130_fd_sc_hd__decap_3 VGND VNB VPB VPWR
.ends

* Black-box entry subcircuit for sky130_fd_sc_hd__tapvpwrvgnd_1 abstract view
.subckt sky130_fd_sc_hd__tapvpwrvgnd_1 VGND VPWR
.ends

* Black-box entry subcircuit for sky130_fd_sc_hd__dfrtp_1 abstract view
.subckt sky130_fd_sc_hd__dfrtp_1 CLK D RESET_B VGND VNB VPB VPWR Q
.ends

* Black-box entry subcircuit for sky130_fd_sc_hd__fill_2 abstract view
.subckt sky130_fd_sc_hd__fill_2 VGND VNB VPB VPWR
.ends

* Black-box entry subcircuit for sky130_fd_sc_hd__and2_1 abstract view
.subckt sky130_fd_sc_hd__and2_1 A B VGND VNB VPB VPWR X
.ends

* Black-box entry subcircuit for sky130_fd_sc_hd__or2_1 abstract view
.subckt sky130_fd_sc_hd__or2_1 A B VGND VNB VPB VPWR X
.ends

* Black-box entry subcircuit for sky130_fd_sc_hd__fill_1 abstract view
.subckt sky130_fd_sc_hd__fill_1 VGND VNB VPB VPWR
.ends

* Black-box entry subcircuit for sky130_fd_sc_hd__buf_2 abstract view
.subckt sky130_fd_sc_hd__buf_2 A VGND VNB VPB VPWR X
.ends

* Black-box entry subcircuit for sky130_fd_sc_hd__a21bo_1 abstract view
.subckt sky130_fd_sc_hd__a21bo_1 A1 A2 B1_N VGND VNB VPB VPWR X
.ends

* Black-box entry subcircuit for sky130_fd_sc_hd__xnor2_1 abstract view
.subckt sky130_fd_sc_hd__xnor2_1 A B VGND VNB VPB VPWR Y
.ends

* Black-box entry subcircuit for sky130_fd_sc_hd__nand2_1 abstract view
.subckt sky130_fd_sc_hd__nand2_1 A B VGND VNB VPB VPWR Y
.ends

* Black-box entry subcircuit for sky130_fd_sc_hd__bufinv_16 abstract view
.subckt sky130_fd_sc_hd__bufinv_16 A VGND VNB VPB VPWR Y
.ends

* Black-box entry subcircuit for sky130_fd_sc_hd__inv_2 abstract view
.subckt sky130_fd_sc_hd__inv_2 A VGND VNB VPB VPWR Y
.ends

* Black-box entry subcircuit for sky130_fd_sc_hd__clkinvlp_4 abstract view
.subckt sky130_fd_sc_hd__clkinvlp_4 A VGND VNB VPB VPWR Y
.ends

* Black-box entry subcircuit for sky130_fd_sc_hd__buf_4 abstract view
.subckt sky130_fd_sc_hd__buf_4 A VGND VNB VPB VPWR X
.ends

* Black-box entry subcircuit for sky130_fd_sc_hd__clkbuf_4 abstract view
.subckt sky130_fd_sc_hd__clkbuf_4 A VGND VNB VPB VPWR X
.ends

* Black-box entry subcircuit for sky130_fd_sc_hd__clkbuf_16 abstract view
.subckt sky130_fd_sc_hd__clkbuf_16 A VGND VNB VPB VPWR X
.ends

* Black-box entry subcircuit for sky130_fd_sc_hd__clkbuf_8 abstract view
.subckt sky130_fd_sc_hd__clkbuf_8 A VGND VNB VPB VPWR X
.ends

* Black-box entry subcircuit for sky130_fd_sc_hd__clkbuf_1 abstract view
.subckt sky130_fd_sc_hd__clkbuf_1 A VGND VNB VPB VPWR X
.ends

* Black-box entry subcircuit for sky130_fd_sc_hd__buf_1 abstract view
.subckt sky130_fd_sc_hd__buf_1 A VGND VNB VPB VPWR X
.ends

* Black-box entry subcircuit for sky130_fd_sc_hd__dlygate4sd3_1 abstract view
.subckt sky130_fd_sc_hd__dlygate4sd3_1 A VGND VNB VPB VPWR X
.ends

* Black-box entry subcircuit for sky130_fd_sc_hd__clkbuf_2 abstract view
.subckt sky130_fd_sc_hd__clkbuf_2 A VGND VNB VPB VPWR X
.ends

* Black-box entry subcircuit for pmu abstract view
.subckt pmu VGND VPWR clk delay_sel[0] delay_sel[1] delay_sel[2] path[0] path[1] path[2]
+ path[3] path[4] path[5] path[6] path[7] path_sel[0] path_sel[1] path_sel[2] rst
+ se tdi tdo
.ends

* Black-box entry subcircuit for sky130_fd_sc_hd__conb_1 abstract view
.subckt sky130_fd_sc_hd__conb_1 VGND VNB VPB VPWR HI LO
.ends

* Black-box entry subcircuit for sky130_fd_sc_hd__o21bai_4 abstract view
.subckt sky130_fd_sc_hd__o21bai_4 A1 A2 B1_N VGND VNB VPB VPWR Y
.ends

* Black-box entry subcircuit for sky130_fd_sc_hd__diode_2 abstract view
.subckt sky130_fd_sc_hd__diode_2 DIODE VGND VNB VPB VPWR
.ends

* Black-box entry subcircuit for sky130_fd_sc_hd__nor2_1 abstract view
.subckt sky130_fd_sc_hd__nor2_1 A B VGND VNB VPB VPWR Y
.ends

* Black-box entry subcircuit for sky130_fd_sc_hd__a21boi_2 abstract view
.subckt sky130_fd_sc_hd__a21boi_2 A1 A2 B1_N VGND VNB VPB VPWR Y
.ends

.subckt rca VGND VPWR a[0] a[10] a[11] a[12] a[13] a[14] a[15] a[1] a[2] a[3] a[4]
+ a[5] a[6] a[7] a[8] a[9] b[0] b[10] b[11] b[12] b[13] b[14] b[15] b[1] b[2] b[3]
+ b[4] b[5] b[6] b[7] b[8] b[9] cin clk cout delay_sel[0] delay_sel[1] delay_sel[2]
+ rst s[0] s[10] s[11] s[12] s[13] s[14] s[15] s[1] s[2] s[3] s[4] s[5] s[6] s[7]
+ s[8] s[9] tdo
XFILLER_39_211 VGND VGND VPWR VPWR sky130_fd_sc_hd__decap_3
XFILLER_54_203 VGND VGND VPWR VPWR sky130_fd_sc_hd__decap_3
XFILLER_39_255 VGND VGND VPWR VPWR sky130_fd_sc_hd__decap_3
XFILLER_54_236 VGND VGND VPWR VPWR sky130_fd_sc_hd__decap_3
XFILLER_39_299 VGND VGND VPWR VPWR sky130_fd_sc_hd__decap_3
XFILLER_22_100 VGND VGND VPWR VPWR sky130_fd_sc_hd__decap_3
XFILLER_22_133 VGND VGND VPWR VPWR sky130_fd_sc_hd__decap_3
XFILLER_62_280 VGND VGND VPWR VPWR sky130_fd_sc_hd__decap_3
XTAP_TAPCELL_ROW_52_459 VGND VPWR sky130_fd_sc_hd__tapvpwrvgnd_1
XFILLER_52_29 VGND VGND VPWR VPWR sky130_fd_sc_hd__decap_3
XFILLER_22_144 VGND VGND VPWR VPWR sky130_fd_sc_hd__decap_3
XFILLER_22_177 VGND VGND VPWR VPWR sky130_fd_sc_hd__decap_3
XFILLER_45_225 VGND VGND VPWR VPWR sky130_fd_sc_hd__decap_3
XFILLER_45_214 VGND VGND VPWR VPWR sky130_fd_sc_hd__decap_3
XFILLER_26_41 VGND VGND VPWR VPWR sky130_fd_sc_hd__decap_3
XFILLER_45_258 VGND VGND VPWR VPWR sky130_fd_sc_hd__decap_3
XFILLER_60_206 VGND VGND VPWR VPWR sky130_fd_sc_hd__decap_3
XFILLER_13_122 VGND VGND VPWR VPWR sky130_fd_sc_hd__decap_3
XFILLER_26_85 VGND VGND VPWR VPWR sky130_fd_sc_hd__decap_3
XFILLER_60_239 VGND VGND VPWR VPWR sky130_fd_sc_hd__decap_3
XFILLER_13_155 VGND VGND VPWR VPWR sky130_fd_sc_hd__decap_3
XFILLER_9_137 VGND VGND VPWR VPWR sky130_fd_sc_hd__decap_3
X_294_ clknet_2_1__leaf_clk_regs net29 _039_ VGND VGND VPWR VPWR genblk1\[6\].fa_inst.b
+ sky130_fd_sc_hd__dfrtp_1
XFILLER_42_62 VGND VGND VPWR VPWR sky130_fd_sc_hd__decap_3
XFILLER_5_343 VGND VGND VPWR VPWR sky130_fd_sc_hd__decap_3
XFILLER_54_9 VGND VGND VPWR VPWR sky130_fd_sc_hd__decap_3
XFILLER_5_376 VGND VGND VPWR VPWR sky130_fd_sc_hd__decap_3
XFILLER_3_34 VGND VGND VPWR VPWR sky130_fd_sc_hd__fill_2
XFILLER_3_78 VGND VGND VPWR VPWR sky130_fd_sc_hd__decap_3
XFILLER_36_203 VGND VGND VPWR VPWR sky130_fd_sc_hd__decap_3
XPHY_EDGE_ROW_20_1_Right_19 VGND VGND VPWR VPWR sky130_fd_sc_hd__decap_3
XFILLER_36_236 VGND VGND VPWR VPWR sky130_fd_sc_hd__decap_3
XFILLER_51_228 VGND VGND VPWR VPWR sky130_fd_sc_hd__decap_3
XFILLER_51_217 VGND VGND VPWR VPWR sky130_fd_sc_hd__decap_3
XFILLER_44_280 VGND VGND VPWR VPWR sky130_fd_sc_hd__decap_3
XFILLER_59_317 VGND VGND VPWR VPWR sky130_fd_sc_hd__decap_3
XFILLER_47_18 VGND VGND VPWR VPWR sky130_fd_sc_hd__decap_3
XFILLER_27_214 VGND VGND VPWR VPWR sky130_fd_sc_hd__decap_3
XFILLER_27_225 VGND VGND VPWR VPWR sky130_fd_sc_hd__decap_3
XFILLER_27_258 VGND VGND VPWR VPWR sky130_fd_sc_hd__decap_3
XFILLER_63_28 VGND VGND VPWR VPWR sky130_fd_sc_hd__decap_3
XFILLER_42_206 VGND VGND VPWR VPWR sky130_fd_sc_hd__decap_3
XFILLER_42_239 VGND VGND VPWR VPWR sky130_fd_sc_hd__decap_3
XFILLER_10_103 VGND VGND VPWR VPWR sky130_fd_sc_hd__decap_3
XFILLER_50_283 VGND VGND VPWR VPWR sky130_fd_sc_hd__decap_3
XFILLER_10_136 VGND VGND VPWR VPWR sky130_fd_sc_hd__decap_3
XFILLER_10_147 VGND VGND VPWR VPWR sky130_fd_sc_hd__decap_3
XFILLER_12_32 VGND VGND VPWR VPWR sky130_fd_sc_hd__decap_3
XFILLER_6_118 VGND VGND VPWR VPWR sky130_fd_sc_hd__decap_3
XFILLER_12_65 VGND VGND VPWR VPWR sky130_fd_sc_hd__decap_3
XFILLER_2_357 VGND VGND VPWR VPWR sky130_fd_sc_hd__decap_3
XFILLER_2_346 VGND VGND VPWR VPWR sky130_fd_sc_hd__decap_3
XFILLER_58_383 VGND VGND VPWR VPWR sky130_fd_sc_hd__decap_3
XFILLER_37_40 VGND VGND VPWR VPWR sky130_fd_sc_hd__decap_3
XFILLER_37_95 VGND VGND VPWR VPWR sky130_fd_sc_hd__decap_3
XFILLER_33_217 VGND VGND VPWR VPWR sky130_fd_sc_hd__decap_3
XFILLER_26_280 VGND VGND VPWR VPWR sky130_fd_sc_hd__decap_3
XFILLER_33_228 VGND VGND VPWR VPWR sky130_fd_sc_hd__decap_3
XFILLER_53_72 VGND VGND VPWR VPWR sky130_fd_sc_hd__decap_3
XFILLER_41_261 VGND VGND VPWR VPWR sky130_fd_sc_hd__decap_3
X_277_ clknet_2_1__leaf_clk_regs net12 _022_ VGND VGND VPWR VPWR genblk1\[5\].fa_inst.a
+ sky130_fd_sc_hd__dfrtp_1
XFILLER_5_140 VGND VGND VPWR VPWR sky130_fd_sc_hd__decap_3
XFILLER_52_6 VGND VGND VPWR VPWR sky130_fd_sc_hd__fill_2
XFILLER_56_309 VGND VGND VPWR VPWR sky130_fd_sc_hd__decap_3
XFILLER_49_361 VGND VGND VPWR VPWR sky130_fd_sc_hd__decap_3
XFILLER_64_320 VGND VGND VPWR VPWR sky130_fd_sc_hd__decap_3
XFILLER_24_206 VGND VGND VPWR VPWR sky130_fd_sc_hd__decap_3
XFILLER_64_386 VGND VGND VPWR VPWR sky130_fd_sc_hd__decap_3
XFILLER_24_239 VGND VGND VPWR VPWR sky130_fd_sc_hd__decap_3
XTAP_TAPCELL_ROW_62_532 VGND VPWR sky130_fd_sc_hd__tapvpwrvgnd_1
XFILLER_32_283 VGND VGND VPWR VPWR sky130_fd_sc_hd__decap_3
XFILLER_59_169 VGND VGND VPWR VPWR sky130_fd_sc_hd__decap_3
XFILLER_59_147 VGND VGND VPWR VPWR sky130_fd_sc_hd__decap_3
XFILLER_55_320 VGND VGND VPWR VPWR sky130_fd_sc_hd__decap_3
XPHY_EDGE_ROW_21_Right_42 VGND VGND VPWR VPWR sky130_fd_sc_hd__decap_3
XFILLER_55_364 VGND VGND VPWR VPWR sky130_fd_sc_hd__decap_3
XFILLER_30_209 VGND VGND VPWR VPWR sky130_fd_sc_hd__decap_3
XFILLER_23_261 VGND VGND VPWR VPWR sky130_fd_sc_hd__decap_3
XTAP_TAPCELL_ROW_25_267 VGND VPWR sky130_fd_sc_hd__tapvpwrvgnd_1
X_200_ genblk1\[15\].fa_inst.b genblk1\[15\].fa_inst.a VGND VGND VPWR VPWR _109_ sky130_fd_sc_hd__and2_1
X_131_ genblk1\[1\].fa_inst.b genblk1\[1\].fa_inst.a VGND VGND VPWR VPWR _054_ sky130_fd_sc_hd__or2_1
XFILLER_23_75 VGND VGND VPWR VPWR sky130_fd_sc_hd__fill_1
XPHY_EDGE_ROW_30_Right_51 VGND VGND VPWR VPWR sky130_fd_sc_hd__decap_3
XFILLER_2_121 VGND VGND VPWR VPWR sky130_fd_sc_hd__decap_3
XFILLER_2_165 VGND VGND VPWR VPWR sky130_fd_sc_hd__decap_3
XFILLER_48_61 VGND VGND VPWR VPWR sky130_fd_sc_hd__decap_3
XFILLER_38_309 VGND VGND VPWR VPWR sky130_fd_sc_hd__decap_3
XFILLER_17_9 VGND VGND VPWR VPWR sky130_fd_sc_hd__decap_3
XFILLER_48_83 VGND VGND VPWR VPWR sky130_fd_sc_hd__fill_1
XFILLER_0_24 VGND VGND VPWR VPWR sky130_fd_sc_hd__decap_3
XFILLER_0_35 VGND VGND VPWR VPWR sky130_fd_sc_hd__decap_3
XFILLER_58_180 VGND VGND VPWR VPWR sky130_fd_sc_hd__decap_3
XFILLER_46_342 VGND VGND VPWR VPWR sky130_fd_sc_hd__decap_3
XFILLER_0_57 VGND VGND VPWR VPWR sky130_fd_sc_hd__decap_3
XFILLER_64_60 VGND VGND VPWR VPWR sky130_fd_sc_hd__decap_3
XFILLER_61_323 VGND VGND VPWR VPWR sky130_fd_sc_hd__decap_3
XFILLER_46_386 VGND VGND VPWR VPWR sky130_fd_sc_hd__decap_3
XFILLER_21_209 VGND VGND VPWR VPWR sky130_fd_sc_hd__decap_3
XFILLER_61_367 VGND VGND VPWR VPWR sky130_fd_sc_hd__decap_3
XFILLER_9_55 VGND VGND VPWR VPWR sky130_fd_sc_hd__fill_1
XFILLER_9_66 VGND VGND VPWR VPWR sky130_fd_sc_hd__decap_3
XFILLER_9_99 VGND VGND VPWR VPWR sky130_fd_sc_hd__decap_3
XFILLER_56_106 VGND VGND VPWR VPWR sky130_fd_sc_hd__decap_3
XFILLER_56_139 VGND VGND VPWR VPWR sky130_fd_sc_hd__fill_1
XFILLER_37_320 VGND VGND VPWR VPWR sky130_fd_sc_hd__decap_3
XFILLER_64_150 VGND VGND VPWR VPWR sky130_fd_sc_hd__decap_3
XFILLER_52_301 VGND VGND VPWR VPWR sky130_fd_sc_hd__decap_3
XFILLER_37_364 VGND VGND VPWR VPWR sky130_fd_sc_hd__decap_3
XFILLER_64_172 VGND VGND VPWR VPWR sky130_fd_sc_hd__decap_3
XFILLER_52_312 VGND VGND VPWR VPWR sky130_fd_sc_hd__decap_3
XFILLER_52_345 VGND VGND VPWR VPWR sky130_fd_sc_hd__decap_3
XFILLER_52_389 VGND VGND VPWR VPWR sky130_fd_sc_hd__decap_3
XTAP_TAPCELL_ROW_22_248 VGND VPWR sky130_fd_sc_hd__tapvpwrvgnd_1
XFILLER_47_128 VGND VGND VPWR VPWR sky130_fd_sc_hd__decap_3
XFILLER_28_342 VGND VGND VPWR VPWR sky130_fd_sc_hd__decap_3
XFILLER_62_109 VGND VGND VPWR VPWR sky130_fd_sc_hd__decap_3
XFILLER_55_161 VGND VGND VPWR VPWR sky130_fd_sc_hd__decap_3
XFILLER_18_97 VGND VGND VPWR VPWR sky130_fd_sc_hd__decap_3
XFILLER_55_172 VGND VGND VPWR VPWR sky130_fd_sc_hd__decap_3
XFILLER_43_323 VGND VGND VPWR VPWR sky130_fd_sc_hd__decap_3
XFILLER_28_386 VGND VGND VPWR VPWR sky130_fd_sc_hd__decap_3
XFILLER_43_367 VGND VGND VPWR VPWR sky130_fd_sc_hd__decap_3
XFILLER_34_41 VGND VGND VPWR VPWR sky130_fd_sc_hd__decap_3
XFILLER_34_85 VGND VGND VPWR VPWR sky130_fd_sc_hd__decap_3
XFILLER_34_74 VGND VGND VPWR VPWR sky130_fd_sc_hd__decap_3
XFILLER_50_62 VGND VGND VPWR VPWR sky130_fd_sc_hd__decap_3
XFILLER_59_60 VGND VGND VPWR VPWR sky130_fd_sc_hd__decap_3
XFILLER_59_93 VGND VGND VPWR VPWR sky130_fd_sc_hd__decap_3
XFILLER_38_106 VGND VGND VPWR VPWR sky130_fd_sc_hd__decap_3
XFILLER_15_6 VGND VGND VPWR VPWR sky130_fd_sc_hd__decap_3
XFILLER_19_331 VGND VGND VPWR VPWR sky130_fd_sc_hd__decap_3
XTAP_TAPCELL_ROW_6_1_187 VGND VPWR sky130_fd_sc_hd__tapvpwrvgnd_1
XFILLER_38_139 VGND VGND VPWR VPWR sky130_fd_sc_hd__fill_1
XFILLER_19_364 VGND VGND VPWR VPWR sky130_fd_sc_hd__decap_3
XFILLER_46_150 VGND VGND VPWR VPWR sky130_fd_sc_hd__decap_3
XFILLER_19_397 VGND VGND VPWR VPWR sky130_fd_sc_hd__decap_3
XFILLER_46_183 VGND VGND VPWR VPWR sky130_fd_sc_hd__decap_3
XFILLER_34_312 VGND VGND VPWR VPWR sky130_fd_sc_hd__decap_3
XFILLER_34_301 VGND VGND VPWR VPWR sky130_fd_sc_hd__decap_3
XFILLER_61_131 VGND VGND VPWR VPWR sky130_fd_sc_hd__decap_3
XFILLER_34_345 VGND VGND VPWR VPWR sky130_fd_sc_hd__decap_3
XFILLER_61_175 VGND VGND VPWR VPWR sky130_fd_sc_hd__decap_3
XFILLER_61_164 VGND VGND VPWR VPWR sky130_fd_sc_hd__decap_3
XFILLER_34_389 VGND VGND VPWR VPWR sky130_fd_sc_hd__decap_3
XFILLER_29_106 VGND VGND VPWR VPWR sky130_fd_sc_hd__decap_3
XFILLER_29_128 VGND VGND VPWR VPWR sky130_fd_sc_hd__decap_3
XFILLER_25_323 VGND VGND VPWR VPWR sky130_fd_sc_hd__decap_3
XFILLER_37_172 VGND VGND VPWR VPWR sky130_fd_sc_hd__decap_3
XFILLER_37_161 VGND VGND VPWR VPWR sky130_fd_sc_hd__decap_3
XFILLER_25_367 VGND VGND VPWR VPWR sky130_fd_sc_hd__decap_3
XTAP_TAPCELL_ROW_35_340 VGND VPWR sky130_fd_sc_hd__tapvpwrvgnd_1
XFILLER_52_153 VGND VGND VPWR VPWR sky130_fd_sc_hd__decap_3
XFILLER_52_131 VGND VGND VPWR VPWR sky130_fd_sc_hd__decap_3
XFILLER_52_186 VGND VGND VPWR VPWR sky130_fd_sc_hd__decap_3
XFILLER_40_315 VGND VGND VPWR VPWR sky130_fd_sc_hd__decap_3
XFILLER_40_304 VGND VGND VPWR VPWR sky130_fd_sc_hd__decap_3
XFILLER_52_197 VGND VGND VPWR VPWR sky130_fd_sc_hd__decap_3
XFILLER_40_348 VGND VGND VPWR VPWR sky130_fd_sc_hd__decap_3
XFILLER_20_21 VGND VGND VPWR VPWR sky130_fd_sc_hd__decap_3
XFILLER_20_32 VGND VGND VPWR VPWR sky130_fd_sc_hd__decap_3
XFILLER_20_65 VGND VGND VPWR VPWR sky130_fd_sc_hd__fill_1
XFILLER_20_76 VGND VGND VPWR VPWR sky130_fd_sc_hd__decap_3
XFILLER_0_400 VGND VGND VPWR VPWR sky130_fd_sc_hd__decap_3
XFILLER_48_404 VGND VGND VPWR VPWR sky130_fd_sc_hd__decap_3
XFILLER_29_96 VGND VGND VPWR VPWR sky130_fd_sc_hd__decap_3
XFILLER_35_109 VGND VGND VPWR VPWR sky130_fd_sc_hd__decap_3
XTAP_TAPCELL_ROW_58_498 VGND VPWR sky130_fd_sc_hd__tapvpwrvgnd_1
XFILLER_28_183 VGND VGND VPWR VPWR sky130_fd_sc_hd__decap_3
XFILLER_16_334 VGND VGND VPWR VPWR sky130_fd_sc_hd__decap_3
XFILLER_45_73 VGND VGND VPWR VPWR sky130_fd_sc_hd__decap_3
XFILLER_45_62 VGND VGND VPWR VPWR sky130_fd_sc_hd__decap_3
XFILLER_43_131 VGND VGND VPWR VPWR sky130_fd_sc_hd__decap_3
XFILLER_16_378 VGND VGND VPWR VPWR sky130_fd_sc_hd__decap_3
XFILLER_43_175 VGND VGND VPWR VPWR sky130_fd_sc_hd__decap_3
XFILLER_43_164 VGND VGND VPWR VPWR sky130_fd_sc_hd__decap_3
XFILLER_31_326 VGND VGND VPWR VPWR sky130_fd_sc_hd__decap_3
XFILLER_31_337 VGND VGND VPWR VPWR sky130_fd_sc_hd__decap_3
XFILLER_61_72 VGND VGND VPWR VPWR sky130_fd_sc_hd__decap_3
XFILLER_6_12 VGND VGND VPWR VPWR sky130_fd_sc_hd__decap_3
XFILLER_6_56 VGND VGND VPWR VPWR sky130_fd_sc_hd__decap_3
XFILLER_13_3 VGND VGND VPWR VPWR sky130_fd_sc_hd__decap_3
XFILLER_26_109 VGND VGND VPWR VPWR sky130_fd_sc_hd__decap_3
XFILLER_19_161 VGND VGND VPWR VPWR sky130_fd_sc_hd__decap_3
XFILLER_19_172 VGND VGND VPWR VPWR sky130_fd_sc_hd__decap_3
XFILLER_22_304 VGND VGND VPWR VPWR sky130_fd_sc_hd__decap_3
XFILLER_22_315 VGND VGND VPWR VPWR sky130_fd_sc_hd__decap_3
XFILLER_34_153 VGND VGND VPWR VPWR sky130_fd_sc_hd__decap_3
XFILLER_22_348 VGND VGND VPWR VPWR sky130_fd_sc_hd__decap_3
XTAP_TAPCELL_ROW_32_321 VGND VPWR sky130_fd_sc_hd__tapvpwrvgnd_1
XFILLER_34_197 VGND VGND VPWR VPWR sky130_fd_sc_hd__decap_3
XFILLER_34_186 VGND VGND VPWR VPWR sky130_fd_sc_hd__decap_3
XFILLER_30_392 VGND VGND VPWR VPWR sky130_fd_sc_hd__decap_3
XFILLER_57_234 VGND VGND VPWR VPWR sky130_fd_sc_hd__decap_3
XFILLER_57_223 VGND VGND VPWR VPWR sky130_fd_sc_hd__fill_1
XFILLER_17_109 VGND VGND VPWR VPWR sky130_fd_sc_hd__decap_3
XFILLER_57_267 VGND VGND VPWR VPWR sky130_fd_sc_hd__decap_3
XFILLER_25_131 VGND VGND VPWR VPWR sky130_fd_sc_hd__decap_3
XFILLER_25_164 VGND VGND VPWR VPWR sky130_fd_sc_hd__decap_3
XFILLER_25_175 VGND VGND VPWR VPWR sky130_fd_sc_hd__decap_3
XTAP_TAPCELL_ROW_55_479 VGND VPWR sky130_fd_sc_hd__tapvpwrvgnd_1
XFILLER_13_337 VGND VGND VPWR VPWR sky130_fd_sc_hd__decap_3
XFILLER_15_43 VGND VGND VPWR VPWR sky130_fd_sc_hd__decap_3
XFILLER_15_87 VGND VGND VPWR VPWR sky130_fd_sc_hd__decap_3
XFILLER_40_156 VGND VGND VPWR VPWR sky130_fd_sc_hd__decap_3
XFILLER_40_189 VGND VGND VPWR VPWR sky130_fd_sc_hd__decap_3
XTAP_TAPCELL_ROW_5_1_186 VGND VPWR sky130_fd_sc_hd__tapvpwrvgnd_1
XFILLER_31_53 VGND VGND VPWR VPWR sky130_fd_sc_hd__decap_3
XFILLER_31_75 VGND VGND VPWR VPWR sky130_fd_sc_hd__decap_3
Xoutput42 net42 VGND VGND VPWR VPWR s[12] sky130_fd_sc_hd__buf_2
Xoutput53 net53 VGND VGND VPWR VPWR s[8] sky130_fd_sc_hd__buf_2
XFILLER_48_212 VGND VGND VPWR VPWR sky130_fd_sc_hd__decap_3
XFILLER_56_50 VGND VGND VPWR VPWR sky130_fd_sc_hd__decap_3
XFILLER_48_256 VGND VGND VPWR VPWR sky130_fd_sc_hd__decap_3
XFILLER_48_245 VGND VGND VPWR VPWR sky130_fd_sc_hd__decap_3
XFILLER_63_237 VGND VGND VPWR VPWR sky130_fd_sc_hd__decap_3
XFILLER_48_289 VGND VGND VPWR VPWR sky130_fd_sc_hd__decap_3
XFILLER_16_131 VGND VGND VPWR VPWR sky130_fd_sc_hd__decap_3
XFILLER_56_94 VGND VGND VPWR VPWR sky130_fd_sc_hd__decap_3
XFILLER_16_153 VGND VGND VPWR VPWR sky130_fd_sc_hd__decap_3
XFILLER_31_134 VGND VGND VPWR VPWR sky130_fd_sc_hd__decap_3
XFILLER_31_167 VGND VGND VPWR VPWR sky130_fd_sc_hd__fill_1
XFILLER_12_381 VGND VGND VPWR VPWR sky130_fd_sc_hd__decap_3
XFILLER_31_178 VGND VGND VPWR VPWR sky130_fd_sc_hd__decap_3
XFILLER_8_352 VGND VGND VPWR VPWR sky130_fd_sc_hd__fill_1
XFILLER_8_363 VGND VGND VPWR VPWR sky130_fd_sc_hd__decap_3
XFILLER_8_396 VGND VGND VPWR VPWR sky130_fd_sc_hd__decap_3
XFILLER_39_234 VGND VGND VPWR VPWR sky130_fd_sc_hd__decap_3
XFILLER_39_223 VGND VGND VPWR VPWR sky130_fd_sc_hd__fill_1
XFILLER_39_267 VGND VGND VPWR VPWR sky130_fd_sc_hd__decap_3
XFILLER_54_215 VGND VGND VPWR VPWR sky130_fd_sc_hd__decap_3
XFILLER_54_259 VGND VGND VPWR VPWR sky130_fd_sc_hd__decap_3
XFILLER_54_248 VGND VGND VPWR VPWR sky130_fd_sc_hd__decap_3
XFILLER_22_112 VGND VGND VPWR VPWR sky130_fd_sc_hd__decap_3
XFILLER_62_292 VGND VGND VPWR VPWR sky130_fd_sc_hd__decap_3
XFILLER_22_156 VGND VGND VPWR VPWR sky130_fd_sc_hd__decap_3
XFILLER_22_189 VGND VGND VPWR VPWR sky130_fd_sc_hd__decap_3
XFILLER_45_237 VGND VGND VPWR VPWR sky130_fd_sc_hd__decap_3
XFILLER_26_75 VGND VGND VPWR VPWR sky130_fd_sc_hd__decap_3
XFILLER_60_218 VGND VGND VPWR VPWR sky130_fd_sc_hd__decap_3
XFILLER_26_97 VGND VGND VPWR VPWR sky130_fd_sc_hd__decap_3
XFILLER_53_281 VGND VGND VPWR VPWR sky130_fd_sc_hd__decap_3
XFILLER_53_270 VGND VGND VPWR VPWR sky130_fd_sc_hd__decap_3
XFILLER_13_134 VGND VGND VPWR VPWR sky130_fd_sc_hd__decap_3
XFILLER_13_167 VGND VGND VPWR VPWR sky130_fd_sc_hd__fill_1
XFILLER_9_105 VGND VGND VPWR VPWR sky130_fd_sc_hd__decap_3
XFILLER_9_116 VGND VGND VPWR VPWR sky130_fd_sc_hd__decap_3
XFILLER_13_178 VGND VGND VPWR VPWR sky130_fd_sc_hd__fill_2
XFILLER_9_149 VGND VGND VPWR VPWR sky130_fd_sc_hd__decap_3
X_293_ clknet_2_1__leaf_clk_regs net28 _038_ VGND VGND VPWR VPWR genblk1\[5\].fa_inst.b
+ sky130_fd_sc_hd__dfrtp_1
XFILLER_42_41 VGND VGND VPWR VPWR sky130_fd_sc_hd__decap_3
XFILLER_42_85 VGND VGND VPWR VPWR sky130_fd_sc_hd__decap_3
XFILLER_42_74 VGND VGND VPWR VPWR sky130_fd_sc_hd__decap_3
XFILLER_5_355 VGND VGND VPWR VPWR sky130_fd_sc_hd__decap_3
XFILLER_5_388 VGND VGND VPWR VPWR sky130_fd_sc_hd__decap_3
XFILLER_47_9 VGND VGND VPWR VPWR sky130_fd_sc_hd__decap_3
XFILLER_36_215 VGND VGND VPWR VPWR sky130_fd_sc_hd__decap_3
XFILLER_36_259 VGND VGND VPWR VPWR sky130_fd_sc_hd__decap_3
XFILLER_36_248 VGND VGND VPWR VPWR sky130_fd_sc_hd__decap_3
XFILLER_44_292 VGND VGND VPWR VPWR sky130_fd_sc_hd__decap_3
XFILLER_8_171 VGND VGND VPWR VPWR sky130_fd_sc_hd__decap_3
XFILLER_59_329 VGND VGND VPWR VPWR sky130_fd_sc_hd__decap_3
XFILLER_27_237 VGND VGND VPWR VPWR sky130_fd_sc_hd__decap_3
XFILLER_42_218 VGND VGND VPWR VPWR sky130_fd_sc_hd__decap_3
XFILLER_35_281 VGND VGND VPWR VPWR sky130_fd_sc_hd__decap_3
XFILLER_35_270 VGND VGND VPWR VPWR sky130_fd_sc_hd__decap_3
XFILLER_50_251 VGND VGND VPWR VPWR sky130_fd_sc_hd__fill_1
XFILLER_10_115 VGND VGND VPWR VPWR sky130_fd_sc_hd__decap_3
XFILLER_50_262 VGND VGND VPWR VPWR sky130_fd_sc_hd__decap_3
XFILLER_10_159 VGND VGND VPWR VPWR sky130_fd_sc_hd__decap_3
XFILLER_50_295 VGND VGND VPWR VPWR sky130_fd_sc_hd__decap_3
XFILLER_12_44 VGND VGND VPWR VPWR sky130_fd_sc_hd__decap_3
XFILLER_12_77 VGND VGND VPWR VPWR sky130_fd_sc_hd__decap_3
XFILLER_12_88 VGND VGND VPWR VPWR sky130_fd_sc_hd__decap_3
XFILLER_2_369 VGND VGND VPWR VPWR sky130_fd_sc_hd__decap_3
XFILLER_58_351 VGND VGND VPWR VPWR sky130_fd_sc_hd__decap_3
XFILLER_58_395 VGND VGND VPWR VPWR sky130_fd_sc_hd__decap_3
XFILLER_37_74 VGND VGND VPWR VPWR sky130_fd_sc_hd__decap_3
XFILLER_26_292 VGND VGND VPWR VPWR sky130_fd_sc_hd__decap_3
XFILLER_53_40 VGND VGND VPWR VPWR sky130_fd_sc_hd__decap_3
XFILLER_41_240 VGND VGND VPWR VPWR sky130_fd_sc_hd__decap_3
XFILLER_53_84 VGND VGND VPWR VPWR sky130_fd_sc_hd__decap_3
XFILLER_41_284 VGND VGND VPWR VPWR sky130_fd_sc_hd__decap_3
XFILLER_41_273 VGND VGND VPWR VPWR sky130_fd_sc_hd__decap_3
X_276_ clknet_2_1__leaf_clk_regs net11 _021_ VGND VGND VPWR VPWR genblk1\[4\].fa_inst.a
+ sky130_fd_sc_hd__dfrtp_1
XFILLER_5_152 VGND VGND VPWR VPWR sky130_fd_sc_hd__decap_3
XFILLER_45_6 VGND VGND VPWR VPWR sky130_fd_sc_hd__decap_3
XFILLER_1_391 VGND VGND VPWR VPWR sky130_fd_sc_hd__decap_3
XFILLER_49_340 VGND VGND VPWR VPWR sky130_fd_sc_hd__decap_3
XFILLER_49_373 VGND VGND VPWR VPWR sky130_fd_sc_hd__decap_3
XFILLER_64_332 VGND VGND VPWR VPWR sky130_fd_sc_hd__decap_3
XFILLER_64_343 VGND VGND VPWR VPWR sky130_fd_sc_hd__decap_3
XFILLER_24_218 VGND VGND VPWR VPWR sky130_fd_sc_hd__decap_3
XFILLER_64_365 VGND VGND VPWR VPWR sky130_fd_sc_hd__decap_3
XFILLER_20_402 VGND VGND VPWR VPWR sky130_fd_sc_hd__decap_3
XFILLER_32_262 VGND VGND VPWR VPWR sky130_fd_sc_hd__decap_3
XFILLER_32_251 VGND VGND VPWR VPWR sky130_fd_sc_hd__fill_1
XFILLER_32_295 VGND VGND VPWR VPWR sky130_fd_sc_hd__decap_3
XFILLER_58_18 VGND VGND VPWR VPWR sky130_fd_sc_hd__decap_3
XFILLER_59_126 VGND VGND VPWR VPWR sky130_fd_sc_hd__decap_3
XFILLER_59_159 VGND VGND VPWR VPWR sky130_fd_sc_hd__decap_3
XFILLER_55_343 VGND VGND VPWR VPWR sky130_fd_sc_hd__decap_3
XFILLER_55_332 VGND VGND VPWR VPWR sky130_fd_sc_hd__decap_3
XFILLER_55_376 VGND VGND VPWR VPWR sky130_fd_sc_hd__decap_3
XFILLER_23_240 VGND VGND VPWR VPWR sky130_fd_sc_hd__decap_3
XFILLER_23_273 VGND VGND VPWR VPWR sky130_fd_sc_hd__decap_3
XTAP_TAPCELL_ROW_25_268 VGND VPWR sky130_fd_sc_hd__tapvpwrvgnd_1
XFILLER_23_284 VGND VGND VPWR VPWR sky130_fd_sc_hd__decap_3
XFILLER_7_406 VGND VGND VPWR VPWR sky130_fd_sc_hd__fill_1
X_130_ cin_q _050_ _051_ VGND VGND VPWR VPWR _053_ sky130_fd_sc_hd__a21bo_1
XFILLER_2_100 VGND VGND VPWR VPWR sky130_fd_sc_hd__decap_3
XFILLER_2_144 VGND VGND VPWR VPWR sky130_fd_sc_hd__decap_3
XFILLER_2_133 VGND VGND VPWR VPWR sky130_fd_sc_hd__decap_3
XFILLER_58_192 VGND VGND VPWR VPWR sky130_fd_sc_hd__decap_3
XFILLER_46_321 VGND VGND VPWR VPWR sky130_fd_sc_hd__decap_3
XFILLER_0_47 VGND VGND VPWR VPWR sky130_fd_sc_hd__decap_3
XFILLER_0_69 VGND VGND VPWR VPWR sky130_fd_sc_hd__decap_3
XFILLER_61_302 VGND VGND VPWR VPWR sky130_fd_sc_hd__decap_3
XFILLER_46_365 VGND VGND VPWR VPWR sky130_fd_sc_hd__decap_3
XFILLER_46_354 VGND VGND VPWR VPWR sky130_fd_sc_hd__decap_3
XFILLER_64_50 VGND VGND VPWR VPWR sky130_fd_sc_hd__decap_3
XFILLER_64_72 VGND VGND VPWR VPWR sky130_fd_sc_hd__decap_3
XFILLER_61_335 VGND VGND VPWR VPWR sky130_fd_sc_hd__fill_1
XFILLER_46_398 VGND VGND VPWR VPWR sky130_fd_sc_hd__decap_3
XFILLER_64_94 VGND VGND VPWR VPWR sky130_fd_sc_hd__decap_3
XFILLER_61_346 VGND VGND VPWR VPWR sky130_fd_sc_hd__decap_3
XFILLER_9_34 VGND VGND VPWR VPWR sky130_fd_sc_hd__decap_3
XFILLER_61_379 VGND VGND VPWR VPWR sky130_fd_sc_hd__decap_3
XFILLER_9_78 VGND VGND VPWR VPWR sky130_fd_sc_hd__decap_3
X_259_ clknet_2_0__leaf_clk_regs genblk1\[4\].fa_inst.s _004_ VGND VGND VPWR VPWR
+ net49 sky130_fd_sc_hd__dfrtp_1
XFILLER_43_3 VGND VGND VPWR VPWR sky130_fd_sc_hd__decap_3
XFILLER_56_118 VGND VGND VPWR VPWR sky130_fd_sc_hd__decap_3
XFILLER_49_181 VGND VGND VPWR VPWR sky130_fd_sc_hd__decap_3
XFILLER_37_332 VGND VGND VPWR VPWR sky130_fd_sc_hd__decap_3
XFILLER_37_376 VGND VGND VPWR VPWR sky130_fd_sc_hd__decap_3
XFILLER_37_343 VGND VGND VPWR VPWR sky130_fd_sc_hd__decap_3
XFILLER_64_162 VGND VGND VPWR VPWR sky130_fd_sc_hd__decap_3
XFILLER_64_184 VGND VGND VPWR VPWR sky130_fd_sc_hd__decap_3
XFILLER_52_324 VGND VGND VPWR VPWR sky130_fd_sc_hd__decap_3
XFILLER_52_368 VGND VGND VPWR VPWR sky130_fd_sc_hd__decap_3
XFILLER_52_357 VGND VGND VPWR VPWR sky130_fd_sc_hd__decap_3
XTAP_TAPCELL_ROW_22_249 VGND VPWR sky130_fd_sc_hd__tapvpwrvgnd_1
XFILLER_18_21 VGND VGND VPWR VPWR sky130_fd_sc_hd__decap_3
XFILLER_18_32 VGND VGND VPWR VPWR sky130_fd_sc_hd__decap_3
XFILLER_28_321 VGND VGND VPWR VPWR sky130_fd_sc_hd__decap_3
XFILLER_55_140 VGND VGND VPWR VPWR sky130_fd_sc_hd__decap_3
XFILLER_28_365 VGND VGND VPWR VPWR sky130_fd_sc_hd__decap_3
XFILLER_28_354 VGND VGND VPWR VPWR sky130_fd_sc_hd__decap_3
XTAP_TAPCELL_ROW_38_360 VGND VPWR sky130_fd_sc_hd__tapvpwrvgnd_1
XFILLER_55_184 VGND VGND VPWR VPWR sky130_fd_sc_hd__decap_3
XFILLER_43_335 VGND VGND VPWR VPWR sky130_fd_sc_hd__fill_1
XFILLER_43_302 VGND VGND VPWR VPWR sky130_fd_sc_hd__decap_3
XFILLER_28_398 VGND VGND VPWR VPWR sky130_fd_sc_hd__decap_3
XFILLER_43_346 VGND VGND VPWR VPWR sky130_fd_sc_hd__decap_3
XFILLER_43_379 VGND VGND VPWR VPWR sky130_fd_sc_hd__decap_3
XFILLER_34_53 VGND VGND VPWR VPWR sky130_fd_sc_hd__decap_3
XFILLER_34_97 VGND VGND VPWR VPWR sky130_fd_sc_hd__decap_3
XFILLER_50_41 VGND VGND VPWR VPWR sky130_fd_sc_hd__decap_3
XFILLER_50_85 VGND VGND VPWR VPWR sky130_fd_sc_hd__decap_3
XFILLER_50_74 VGND VGND VPWR VPWR sky130_fd_sc_hd__decap_3
XFILLER_59_72 VGND VGND VPWR VPWR sky130_fd_sc_hd__decap_3
XFILLER_38_118 VGND VGND VPWR VPWR sky130_fd_sc_hd__decap_3
XTAP_TAPCELL_ROW_6_1_188 VGND VPWR sky130_fd_sc_hd__tapvpwrvgnd_1
XFILLER_19_343 VGND VGND VPWR VPWR sky130_fd_sc_hd__decap_3
XFILLER_19_376 VGND VGND VPWR VPWR sky130_fd_sc_hd__decap_3
XFILLER_46_162 VGND VGND VPWR VPWR sky130_fd_sc_hd__decap_3
XFILLER_34_324 VGND VGND VPWR VPWR sky130_fd_sc_hd__decap_3
XFILLER_61_143 VGND VGND VPWR VPWR sky130_fd_sc_hd__decap_3
XFILLER_46_195 VGND VGND VPWR VPWR sky130_fd_sc_hd__fill_1
XFILLER_34_368 VGND VGND VPWR VPWR sky130_fd_sc_hd__decap_3
XFILLER_34_357 VGND VGND VPWR VPWR sky130_fd_sc_hd__decap_3
XFILLER_61_187 VGND VGND VPWR VPWR sky130_fd_sc_hd__decap_3
XPHY_EDGE_ROW_7_1_Right_6 VGND VGND VPWR VPWR sky130_fd_sc_hd__decap_3
XFILLER_37_140 VGND VGND VPWR VPWR sky130_fd_sc_hd__decap_3
XFILLER_1_90 VGND VGND VPWR VPWR sky130_fd_sc_hd__decap_3
XFILLER_25_302 VGND VGND VPWR VPWR sky130_fd_sc_hd__decap_3
XFILLER_37_184 VGND VGND VPWR VPWR sky130_fd_sc_hd__decap_3
XFILLER_25_335 VGND VGND VPWR VPWR sky130_fd_sc_hd__fill_1
XFILLER_25_346 VGND VGND VPWR VPWR sky130_fd_sc_hd__decap_3
XFILLER_25_379 VGND VGND VPWR VPWR sky130_fd_sc_hd__decap_3
XTAP_TAPCELL_ROW_35_341 VGND VPWR sky130_fd_sc_hd__tapvpwrvgnd_1
XFILLER_52_165 VGND VGND VPWR VPWR sky130_fd_sc_hd__decap_3
XFILLER_40_327 VGND VGND VPWR VPWR sky130_fd_sc_hd__decap_3
XFILLER_20_44 VGND VGND VPWR VPWR sky130_fd_sc_hd__decap_3
XFILLER_20_88 VGND VGND VPWR VPWR sky130_fd_sc_hd__decap_3
XFILLER_29_42 VGND VGND VPWR VPWR sky130_fd_sc_hd__decap_3
XFILLER_29_75 VGND VGND VPWR VPWR sky130_fd_sc_hd__decap_3
XTAP_TAPCELL_ROW_58_499 VGND VPWR sky130_fd_sc_hd__tapvpwrvgnd_1
XFILLER_28_162 VGND VGND VPWR VPWR sky130_fd_sc_hd__decap_3
XFILLER_16_346 VGND VGND VPWR VPWR sky130_fd_sc_hd__decap_3
XFILLER_16_357 VGND VGND VPWR VPWR sky130_fd_sc_hd__decap_3
XFILLER_45_41 VGND VGND VPWR VPWR sky130_fd_sc_hd__decap_3
XFILLER_43_143 VGND VGND VPWR VPWR sky130_fd_sc_hd__decap_3
XFILLER_28_195 VGND VGND VPWR VPWR sky130_fd_sc_hd__fill_1
XFILLER_45_85 VGND VGND VPWR VPWR sky130_fd_sc_hd__decap_3
XFILLER_31_305 VGND VGND VPWR VPWR sky130_fd_sc_hd__decap_3
XFILLER_43_187 VGND VGND VPWR VPWR sky130_fd_sc_hd__decap_3
XFILLER_31_349 VGND VGND VPWR VPWR sky130_fd_sc_hd__decap_3
XFILLER_61_51 VGND VGND VPWR VPWR sky130_fd_sc_hd__decap_3
XFILLER_61_84 VGND VGND VPWR VPWR sky130_fd_sc_hd__decap_3
XFILLER_6_24 VGND VGND VPWR VPWR sky130_fd_sc_hd__decap_3
XFILLER_6_35 VGND VGND VPWR VPWR sky130_fd_sc_hd__decap_3
XFILLER_39_405 VGND VGND VPWR VPWR sky130_fd_sc_hd__fill_2
XFILLER_19_140 VGND VGND VPWR VPWR sky130_fd_sc_hd__decap_3
XFILLER_34_121 VGND VGND VPWR VPWR sky130_fd_sc_hd__decap_3
XFILLER_34_165 VGND VGND VPWR VPWR sky130_fd_sc_hd__decap_3
XFILLER_22_327 VGND VGND VPWR VPWR sky130_fd_sc_hd__decap_3
XTAP_TAPCELL_ROW_32_322 VGND VPWR sky130_fd_sc_hd__tapvpwrvgnd_1
XFILLER_30_371 VGND VGND VPWR VPWR sky130_fd_sc_hd__decap_3
XFILLER_30_360 VGND VGND VPWR VPWR sky130_fd_sc_hd__decap_3
XFILLER_57_202 VGND VGND VPWR VPWR sky130_fd_sc_hd__decap_3
XFILLER_57_246 VGND VGND VPWR VPWR sky130_fd_sc_hd__decap_3
XFILLER_57_279 VGND VGND VPWR VPWR sky130_fd_sc_hd__fill_1
XFILLER_25_143 VGND VGND VPWR VPWR sky130_fd_sc_hd__decap_3
XFILLER_13_349 VGND VGND VPWR VPWR sky130_fd_sc_hd__decap_3
XFILLER_15_55 VGND VGND VPWR VPWR sky130_fd_sc_hd__fill_1
XFILLER_15_66 VGND VGND VPWR VPWR sky130_fd_sc_hd__decap_3
XFILLER_25_187 VGND VGND VPWR VPWR sky130_fd_sc_hd__decap_3
XFILLER_40_124 VGND VGND VPWR VPWR sky130_fd_sc_hd__decap_3
XFILLER_15_99 VGND VGND VPWR VPWR sky130_fd_sc_hd__decap_3
XFILLER_40_168 VGND VGND VPWR VPWR sky130_fd_sc_hd__decap_3
XFILLER_21_371 VGND VGND VPWR VPWR sky130_fd_sc_hd__decap_3
XFILLER_21_393 VGND VGND VPWR VPWR sky130_fd_sc_hd__decap_3