* NGSPICE file created from pmu.ext - technology: sky130A

.subckt sky130_fd_sc_hd__decap_3 VPWR VGND VPB VNB
X0 VPWR VGND VPWR VPB sky130_fd_pr__pfet_01v8_hvt ad=0.2262 pd=2.26 as=0.4524 ps=4.52 w=0.87 l=0.59
X1 VGND VPWR VGND VNB sky130_fd_pr__nfet_01v8 ad=0.143 pd=1.62 as=0.286 ps=3.24 w=0.55 l=0.59
C0 VGND VPWR 0.353f
C1 VGND VPB 0.07966f
C2 VPB VPWR 0.0625f
C3 VPWR VNB 0.46997f
C4 VGND VNB 0.42732f
C5 VPB VNB 0.33898f
.ends

.subckt sky130_fd_sc_hd__buf_1 VGND VPWR X A VPB VNB a_27_47#
X0 VPWR A a_27_47# VPB sky130_fd_pr__pfet_01v8_hvt ad=0.11455 pd=1.08 as=0.2054 ps=2.1 w=0.79 l=0.15
X1 X a_27_47# VGND VNB sky130_fd_pr__nfet_01v8 ad=0.1352 pd=1.56 as=0.0754 ps=0.81 w=0.52 l=0.15
X2 X a_27_47# VPWR VPB sky130_fd_pr__pfet_01v8_hvt ad=0.2054 pd=2.1 as=0.11455 ps=1.08 w=0.79 l=0.15
X3 VGND A a_27_47# VNB sky130_fd_pr__nfet_01v8 ad=0.0754 pd=0.81 as=0.1352 ps=1.56 w=0.52 l=0.15
C0 VPB VGND 0.00505f
C1 VGND X 0.05463f
C2 VGND VPWR 0.02897f
C3 a_27_47# VGND 0.10476f
C4 VGND A 0.01842f
C5 VPB X 0.01276f
C6 VPB VPWR 0.03549f
C7 VPWR X 0.08968f
C8 VPB a_27_47# 0.05917f
C9 a_27_47# X 0.10745f
C10 a_27_47# VPWR 0.1351f
C11 VPB A 0.05239f
C12 X A 0
C13 VPWR A 0.02154f
C14 a_27_47# A 0.18145f
C15 VGND VNB 0.20732f
C16 X VNB 0.09411f
C17 VPWR VNB 0.1754f
C18 A VNB 0.16405f
C19 VPB VNB 0.33898f
C20 a_27_47# VNB 0.20778f
.ends

.subckt sky130_fd_sc_hd__clkbuf_4 VGND VPWR A X VPB VNB a_27_47#
X0 VPWR A a_27_47# VPB sky130_fd_pr__pfet_01v8_hvt ad=0.165 pd=1.33 as=0.265 ps=2.53 w=1 l=0.15
X1 VGND a_27_47# X VNB sky130_fd_pr__nfet_01v8 ad=0.1218 pd=1.42 as=0.0588 ps=0.7 w=0.42 l=0.15
X2 VGND a_27_47# X VNB sky130_fd_pr__nfet_01v8 ad=0.0588 pd=0.7 as=0.0588 ps=0.7 w=0.42 l=0.15
X3 X a_27_47# VPWR VPB sky130_fd_pr__pfet_01v8_hvt ad=0.14 pd=1.28 as=0.14 ps=1.28 w=1 l=0.15
X4 X a_27_47# VGND VNB sky130_fd_pr__nfet_01v8 ad=0.0588 pd=0.7 as=0.0588 ps=0.7 w=0.42 l=0.15
X5 VGND A a_27_47# VNB sky130_fd_pr__nfet_01v8 ad=0.07035 pd=0.755 as=0.1113 ps=1.37 w=0.42 l=0.15
X6 VPWR a_27_47# X VPB sky130_fd_pr__pfet_01v8_hvt ad=0.3 pd=2.6 as=0.14 ps=1.28 w=1 l=0.15
X7 X a_27_47# VGND VNB sky130_fd_pr__nfet_01v8 ad=0.0588 pd=0.7 as=0.07035 ps=0.755 w=0.42 l=0.15
X8 X a_27_47# VPWR VPB sky130_fd_pr__pfet_01v8_hvt ad=0.14 pd=1.28 as=0.165 ps=1.33 w=1 l=0.15
X9 VPWR a_27_47# X VPB sky130_fd_pr__pfet_01v8_hvt ad=0.14 pd=1.28 as=0.14 ps=1.28 w=1 l=0.15
C0 VPB VGND 0.00583f
C1 VGND X 0.21559f
C2 VGND VPWR 0.05704f
C3 a_27_47# VGND 0.14848f
C4 VGND A 0.04309f
C5 VPB X 0.01216f
C6 VPB VPWR 0.06317f
C7 VPWR X 0.31697f
C8 VPB a_27_47# 0.13876f
C9 a_27_47# X 0.3277f
C10 a_27_47# VPWR 0.21924f
C11 VPB A 0.03214f
C12 X A 0.01395f
C13 VPWR A 0.02195f
C14 a_27_47# A 0.19501f
C15 VGND VNB 0.35771f
C16 X VNB 0.06701f
C17 VPWR VNB 0.30765f
C18 A VNB 0.14764f
C19 VPB VNB 0.60476f
C20 a_27_47# VNB 0.54298f
.ends

.subckt sky130_fd_sc_hd__dfrtp_2 VGND VPWR VPB VNB CLK D RESET_B Q a_1462_47# a_543_47#
+ a_651_413# a_193_47# a_805_47# a_448_47# a_639_47# a_1283_21# a_761_289# a_1108_47#
+ a_1217_47# a_1270_413# a_27_47#
X0 a_805_47# a_761_289# a_639_47# VNB sky130_fd_pr__nfet_01v8 ad=0.0441 pd=0.63 as=0.1401 ps=1.1 w=0.42 l=0.15
X1 a_1217_47# a_27_47# a_1108_47# VNB sky130_fd_pr__special_nfet_01v8 ad=0.0669 pd=0.75 as=0.0711 ps=0.755 w=0.36 l=0.15
X2 VGND a_1283_21# Q VNB sky130_fd_pr__nfet_01v8 ad=0.169 pd=1.82 as=0.08775 ps=0.92 w=0.65 l=0.15
X3 a_1283_21# a_1108_47# a_1462_47# VNB sky130_fd_pr__nfet_01v8 ad=0.1092 pd=1.36 as=0.06405 ps=0.725 w=0.42 l=0.15
X4 a_651_413# a_27_47# a_543_47# VPB sky130_fd_pr__pfet_01v8_hvt ad=0.1155 pd=0.97 as=0.07245 ps=0.765 w=0.42 l=0.15
X5 VPWR a_1283_21# Q VPB sky130_fd_pr__pfet_01v8_hvt ad=0.26 pd=2.52 as=0.135 ps=1.27 w=1 l=0.15
X6 a_1108_47# a_193_47# a_761_289# VNB sky130_fd_pr__special_nfet_01v8 ad=0.0711 pd=0.755 as=0.0999 ps=0.985 w=0.36 l=0.15
X7 VGND RESET_B a_805_47# VNB sky130_fd_pr__nfet_01v8 ad=0.1346 pd=1.15 as=0.0441 ps=0.63 w=0.42 l=0.15
X8 Q a_1283_21# VPWR VPB sky130_fd_pr__pfet_01v8_hvt ad=0.135 pd=1.27 as=0.3012 ps=2.66 w=1 l=0.15
X9 VPWR CLK a_27_47# VPB sky130_fd_pr__pfet_01v8_hvt ad=0.0864 pd=0.91 as=0.1664 ps=1.8 w=0.64 l=0.15
X10 a_448_47# D VPWR VPB sky130_fd_pr__pfet_01v8_hvt ad=0.0651 pd=0.73 as=0.1092 ps=1.36 w=0.42 l=0.15
X11 a_761_289# a_543_47# VGND VNB sky130_fd_pr__nfet_01v8 ad=0.0999 pd=0.985 as=0.1346 ps=1.15 w=0.64 l=0.15
X12 a_193_47# a_27_47# VGND VNB sky130_fd_pr__nfet_01v8 ad=0.1092 pd=1.36 as=0.0567 ps=0.69 w=0.42 l=0.15
X13 a_1108_47# a_27_47# a_761_289# VPB sky130_fd_pr__pfet_01v8_hvt ad=0.0588 pd=0.7 as=0.12915 ps=1.185 w=0.42 l=0.15
X14 a_1462_47# RESET_B VGND VNB sky130_fd_pr__nfet_01v8 ad=0.06405 pd=0.725 as=0.12495 ps=1.015 w=0.42 l=0.15
X15 a_543_47# a_27_47# a_448_47# VNB sky130_fd_pr__special_nfet_01v8 ad=0.0594 pd=0.69 as=0.066 ps=0.745 w=0.36 l=0.15
X16 a_543_47# a_193_47# a_448_47# VPB sky130_fd_pr__pfet_01v8_hvt ad=0.07245 pd=0.765 as=0.0651 ps=0.73 w=0.42 l=0.15
X17 a_448_47# D VGND VNB sky130_fd_pr__nfet_01v8 ad=0.066 pd=0.745 as=0.2205 ps=1.89 w=0.42 l=0.15
X18 VPWR a_1283_21# a_1270_413# VPB sky130_fd_pr__pfet_01v8_hvt ad=0.0819 pd=0.81 as=0.0567 ps=0.69 w=0.42 l=0.15
X19 VPWR a_1108_47# a_1283_21# VPB sky130_fd_pr__pfet_01v8_hvt ad=0.1134 pd=1.38 as=0.0567 ps=0.69 w=0.42 l=0.15
X20 a_1270_413# a_193_47# a_1108_47# VPB sky130_fd_pr__pfet_01v8_hvt ad=0.0567 pd=0.69 as=0.0588 ps=0.7 w=0.42 l=0.15
X21 a_193_47# a_27_47# VPWR VPB sky130_fd_pr__pfet_01v8_hvt ad=0.1664 pd=1.8 as=0.0864 ps=0.91 w=0.64 l=0.15
X22 a_1283_21# RESET_B VPWR VPB sky130_fd_pr__pfet_01v8_hvt ad=0.0567 pd=0.69 as=0.0819 ps=0.81 w=0.42 l=0.15
X23 VPWR a_761_289# a_651_413# VPB sky130_fd_pr__pfet_01v8_hvt ad=0.07035 pd=0.755 as=0.1155 ps=0.97 w=0.42 l=0.15
X24 Q a_1283_21# VGND VNB sky130_fd_pr__nfet_01v8 ad=0.08775 pd=0.92 as=0.2087 ps=2.02 w=0.65 l=0.15
X25 a_639_47# a_193_47# a_543_47# VNB sky130_fd_pr__special_nfet_01v8 ad=0.1401 pd=1.1 as=0.0594 ps=0.69 w=0.36 l=0.15
X26 VGND a_1283_21# a_1217_47# VNB sky130_fd_pr__nfet_01v8 ad=0.12495 pd=1.015 as=0.0669 ps=0.75 w=0.42 l=0.15
X27 a_651_413# RESET_B VPWR VPB sky130_fd_pr__pfet_01v8_hvt ad=0.1092 pd=1.36 as=0.07035 ps=0.755 w=0.42 l=0.15
X28 VGND CLK a_27_47# VNB sky130_fd_pr__nfet_01v8 ad=0.0567 pd=0.69 as=0.1092 ps=1.36 w=0.42 l=0.15
X29 a_761_289# a_543_47# VPWR VPB sky130_fd_pr__pfet_01v8_hvt ad=0.12915 pd=1.185 as=0.2184 ps=2.2 w=0.84 l=0.15
C0 a_1283_21# VPWR 0.22975f
C1 VPWR a_651_413# 0.12856f
C2 a_805_47# a_761_289# 0
C3 VPB a_27_47# 0.26188f
C4 RESET_B Q 0
C5 VPB a_543_47# 0.09579f
C6 CLK a_27_47# 0.2336f
C7 a_27_47# VPWR 0.1523f
C8 VPWR a_543_47# 0.10029f
C9 VGND Q 0.10966f
C10 a_761_289# RESET_B 0.16611f
C11 a_1217_47# a_761_289# 0
C12 RESET_B a_1108_47# 0.2366f
C13 a_1217_47# a_1108_47# 0.00742f
C14 RESET_B a_1283_21# 0.27892f
C15 D a_27_47# 0.13285f
C16 a_761_289# VGND 0.07338f
C17 RESET_B a_651_413# 0.0122f
C18 D a_543_47# 0
C19 a_1108_47# VGND 0.14813f
C20 a_805_47# a_543_47# 0.00171f
C21 a_27_47# a_448_47# 0.09313f
C22 a_1283_21# VGND 0.25943f
C23 a_448_47# a_543_47# 0.04983f
C24 a_193_47# a_1270_413# 0
C25 RESET_B a_27_47# 0.29634f
C26 a_1217_47# a_27_47# 0
C27 a_1108_47# Q 0
C28 RESET_B a_543_47# 0.15327f
C29 a_1283_21# Q 0.0963f
C30 a_27_47# VGND 0.25397f
C31 VGND a_543_47# 0.12293f
C32 VPB a_193_47# 0.17091f
C33 a_448_47# a_639_47# 0
C34 CLK a_193_47# 0
C35 a_761_289# a_1108_47# 0.05116f
C36 a_193_47# VPWR 0.39596f
C37 a_1283_21# a_1108_47# 0.23366f
C38 a_761_289# a_651_413# 0.09774f
C39 a_27_47# Q 0
C40 RESET_B a_639_47# 0
C41 VGND a_639_47# 0.00863f
C42 D a_193_47# 0.21795f
C43 a_761_289# a_27_47# 0.07009f
C44 a_27_47# a_1108_47# 0.10236f
C45 a_193_47# a_448_47# 0.06418f
C46 VPWR a_1270_413# 0
C47 a_27_47# a_1283_21# 0.04359f
C48 a_761_289# a_543_47# 0.20964f
C49 a_1108_47# a_543_47# 0
C50 a_27_47# a_651_413# 0
C51 a_543_47# a_651_413# 0.05722f
C52 RESET_B a_193_47# 0.0269f
C53 a_1217_47# a_193_47# 0
C54 a_1462_47# RESET_B 0.00288f
C55 VPB CLK 0.06934f
C56 a_193_47# VGND 0.06306f
C57 VPB VPWR 0.2337f
C58 a_761_289# a_639_47# 0
C59 CLK VPWR 0.01741f
C60 a_27_47# a_543_47# 0.11535f
C61 a_1462_47# VGND 0.00221f
C62 RESET_B a_1270_413# 0
C63 VPB D 0.13757f
C64 a_193_47# Q 0
C65 VPB a_448_47# 0.01414f
C66 D VPWR 0.08119f
C67 a_27_47# a_639_47# 0.00188f
C68 a_448_47# VPWR 0.06814f
C69 a_761_289# a_193_47# 0.18639f
C70 a_543_47# a_639_47# 0.01379f
C71 a_193_47# a_1108_47# 0.12532f
C72 VPB RESET_B 0.13848f
C73 a_193_47# a_1283_21# 0.04251f
C74 CLK RESET_B 0
C75 a_193_47# a_651_413# 0.03462f
C76 a_1462_47# a_1283_21# 0.0074f
C77 RESET_B VPWR 0.06519f
C78 VPB VGND 0.01215f
C79 D a_448_47# 0.15563f
C80 CLK VGND 0.01721f
C81 VPWR VGND 0.07191f
C82 a_761_289# a_1270_413# 0
C83 a_1108_47# a_1270_413# 0.00645f
C84 a_27_47# a_193_47# 0.90645f
C85 D RESET_B 0
C86 a_805_47# RESET_B 0.00316f
C87 a_193_47# a_543_47# 0.2298f
C88 VPB Q 0.00555f
C89 RESET_B a_448_47# 0
C90 D VGND 0.05161f
C91 a_805_47# VGND 0.00579f
C92 VPWR Q 0.16936f
C93 a_448_47# VGND 0.0661f
C94 a_761_289# VPB 0.09942f
C95 VPB a_1108_47# 0.11463f
C96 a_1217_47# RESET_B 0
C97 VPB a_1283_21# 0.16811f
C98 a_761_289# VPWR 0.10497f
C99 VPB a_651_413# 0.01354f
C100 a_193_47# a_639_47# 0
C101 RESET_B VGND 0.28803f
C102 a_1108_47# VPWR 0.17379f
C103 a_1217_47# VGND 0
C104 Q VNB 0.02956f
C105 VGND VNB 1.09584f
C106 VPWR VNB 0.90228f
C107 RESET_B VNB 0.26285f
C108 D VNB 0.15989f
C109 CLK VNB 0.19525f
C110 VPB VNB 1.9337f
C111 a_651_413# VNB 0.00469f
C112 a_448_47# VNB 0.0139f
C113 a_1108_47# VNB 0.13732f
C114 a_1283_21# VNB 0.38926f
C115 a_543_47# VNB 0.15787f
C116 a_761_289# VNB 0.12085f
C117 a_193_47# VNB 0.27321f
C118 a_27_47# VNB 0.49575f
.ends

.subckt sky130_fd_sc_hd__clkbuf_16 VNB VPB VGND VPWR A X a_110_47#
X0 VPWR A a_110_47# VPB sky130_fd_pr__pfet_01v8_hvt ad=0.14 pd=1.28 as=0.14 ps=1.28 w=1 l=0.15
X1 VPWR a_110_47# X VPB sky130_fd_pr__pfet_01v8_hvt ad=0.14 pd=1.28 as=0.14 ps=1.28 w=1 l=0.15
X2 X a_110_47# VPWR VPB sky130_fd_pr__pfet_01v8_hvt ad=0.14 pd=1.28 as=0.14 ps=1.28 w=1 l=0.15
X3 X a_110_47# VPWR VPB sky130_fd_pr__pfet_01v8_hvt ad=0.14 pd=1.28 as=0.14 ps=1.28 w=1 l=0.15
X4 VPWR a_110_47# X VPB sky130_fd_pr__pfet_01v8_hvt ad=0.14 pd=1.28 as=0.14 ps=1.28 w=1 l=0.15
X5 VPWR a_110_47# X VPB sky130_fd_pr__pfet_01v8_hvt ad=0.265 pd=2.53 as=0.14 ps=1.28 w=1 l=0.15
X6 a_110_47# A VPWR VPB sky130_fd_pr__pfet_01v8_hvt ad=0.14 pd=1.28 as=0.265 ps=2.53 w=1 l=0.15
X7 a_110_47# A VGND VNB sky130_fd_pr__nfet_01v8 ad=0.0588 pd=0.7 as=0.0588 ps=0.7 w=0.42 l=0.15
X8 VGND a_110_47# X VNB sky130_fd_pr__nfet_01v8 ad=0.0588 pd=0.7 as=0.0588 ps=0.7 w=0.42 l=0.15
X9 X a_110_47# VGND VNB sky130_fd_pr__nfet_01v8 ad=0.0588 pd=0.7 as=0.0588 ps=0.7 w=0.42 l=0.15
X10 VGND a_110_47# X VNB sky130_fd_pr__nfet_01v8 ad=0.0588 pd=0.7 as=0.0588 ps=0.7 w=0.42 l=0.15
X11 a_110_47# A VPWR VPB sky130_fd_pr__pfet_01v8_hvt ad=0.14 pd=1.28 as=0.14 ps=1.28 w=1 l=0.15
X12 VGND A a_110_47# VNB sky130_fd_pr__nfet_01v8 ad=0.0588 pd=0.7 as=0.0588 ps=0.7 w=0.42 l=0.15
X13 VGND a_110_47# X VNB sky130_fd_pr__nfet_01v8 ad=0.05775 pd=0.695 as=0.0588 ps=0.7 w=0.42 l=0.15
X14 VPWR a_110_47# X VPB sky130_fd_pr__pfet_01v8_hvt ad=0.14 pd=1.28 as=0.14 ps=1.28 w=1 l=0.15
X15 X a_110_47# VPWR VPB sky130_fd_pr__pfet_01v8_hvt ad=0.14 pd=1.28 as=0.14 ps=1.28 w=1 l=0.15
X16 VGND A a_110_47# VNB sky130_fd_pr__nfet_01v8 ad=0.0588 pd=0.7 as=0.0588 ps=0.7 w=0.42 l=0.15
X17 VGND a_110_47# X VNB sky130_fd_pr__nfet_01v8 ad=0.1113 pd=1.37 as=0.0588 ps=0.7 w=0.42 l=0.15
X18 VPWR a_110_47# X VPB sky130_fd_pr__pfet_01v8_hvt ad=0.1375 pd=1.275 as=0.14 ps=1.28 w=1 l=0.15
X19 VGND a_110_47# X VNB sky130_fd_pr__nfet_01v8 ad=0.0588 pd=0.7 as=0.0588 ps=0.7 w=0.42 l=0.15
X20 X a_110_47# VPWR VPB sky130_fd_pr__pfet_01v8_hvt ad=0.14 pd=1.28 as=0.1375 ps=1.275 w=1 l=0.15
X21 a_110_47# A VGND VNB sky130_fd_pr__nfet_01v8 ad=0.0588 pd=0.7 as=0.1113 ps=1.37 w=0.42 l=0.15
X22 VPWR A a_110_47# VPB sky130_fd_pr__pfet_01v8_hvt ad=0.14 pd=1.28 as=0.14 ps=1.28 w=1 l=0.15
X23 VPWR a_110_47# X VPB sky130_fd_pr__pfet_01v8_hvt ad=0.14 pd=1.28 as=0.14 ps=1.28 w=1 l=0.15
X24 VPWR a_110_47# X VPB sky130_fd_pr__pfet_01v8_hvt ad=0.14 pd=1.28 as=0.14 ps=1.28 w=1 l=0.15
X25 VGND a_110_47# X VNB sky130_fd_pr__nfet_01v8 ad=0.0588 pd=0.7 as=0.0588 ps=0.7 w=0.42 l=0.15
X26 X a_110_47# VPWR VPB sky130_fd_pr__pfet_01v8_hvt ad=0.14 pd=1.28 as=0.14 ps=1.28 w=1 l=0.15
X27 VGND a_110_47# X VNB sky130_fd_pr__nfet_01v8 ad=0.0588 pd=0.7 as=0.0588 ps=0.7 w=0.42 l=0.15
X28 VGND a_110_47# X VNB sky130_fd_pr__nfet_01v8 ad=0.0588 pd=0.7 as=0.0588 ps=0.7 w=0.42 l=0.15
X29 X a_110_47# VGND VNB sky130_fd_pr__nfet_01v8 ad=0.0588 pd=0.7 as=0.0588 ps=0.7 w=0.42 l=0.15
X30 X a_110_47# VPWR VPB sky130_fd_pr__pfet_01v8_hvt ad=0.14 pd=1.28 as=0.14 ps=1.28 w=1 l=0.15
X31 X a_110_47# VPWR VPB sky130_fd_pr__pfet_01v8_hvt ad=0.14 pd=1.28 as=0.14 ps=1.28 w=1 l=0.15
X32 X a_110_47# VGND VNB sky130_fd_pr__nfet_01v8 ad=0.0588 pd=0.7 as=0.0588 ps=0.7 w=0.42 l=0.15
X33 VPWR a_110_47# X VPB sky130_fd_pr__pfet_01v8_hvt ad=0.14 pd=1.28 as=0.14 ps=1.28 w=1 l=0.15
X34 X a_110_47# VPWR VPB sky130_fd_pr__pfet_01v8_hvt ad=0.14 pd=1.28 as=0.14 ps=1.28 w=1 l=0.15
X35 X a_110_47# VGND VNB sky130_fd_pr__nfet_01v8 ad=0.0588 pd=0.7 as=0.0588 ps=0.7 w=0.42 l=0.15
X36 X a_110_47# VGND VNB sky130_fd_pr__nfet_01v8 ad=0.0588 pd=0.7 as=0.0588 ps=0.7 w=0.42 l=0.15
X37 X a_110_47# VGND VNB sky130_fd_pr__nfet_01v8 ad=0.0588 pd=0.7 as=0.0588 ps=0.7 w=0.42 l=0.15
X38 X a_110_47# VGND VNB sky130_fd_pr__nfet_01v8 ad=0.0588 pd=0.7 as=0.0588 ps=0.7 w=0.42 l=0.15
X39 X a_110_47# VGND VNB sky130_fd_pr__nfet_01v8 ad=0.0588 pd=0.7 as=0.05775 ps=0.695 w=0.42 l=0.15
C0 A VGND 0.11535f
C1 X VGND 0.97688f
C2 a_110_47# VPWR 0.66998f
C3 a_110_47# VPB 0.52756f
C4 VPB VPWR 0.18386f
C5 a_110_47# A 0.30658f
C6 A VPWR 0.11164f
C7 a_110_47# X 1.62234f
C8 VPWR X 1.36494f
C9 VPB A 0.1334f
C10 a_110_47# VGND 0.51239f
C11 VPB X 0.03148f
C12 VPWR VGND 0.18736f
C13 VPB VGND 0.01139f
C14 A X 0.00292f
C15 VGND VNB 1.01442f
C16 X VNB 0.11058f
C17 VPWR VNB 0.83479f
C18 A VNB 0.49473f
C19 VPB VNB 1.84511f
C20 a_110_47# VNB 1.73295f
.ends

.subckt sky130_fd_sc_hd__buf_2 VPWR VGND X A VPB VNB a_27_47#
X0 VPWR a_27_47# X VPB sky130_fd_pr__pfet_01v8_hvt ad=0.265 pd=2.53 as=0.135 ps=1.27 w=1 l=0.15
X1 X a_27_47# VPWR VPB sky130_fd_pr__pfet_01v8_hvt ad=0.135 pd=1.27 as=0.149 ps=1.325 w=1 l=0.15
X2 VPWR A a_27_47# VPB sky130_fd_pr__pfet_01v8_hvt ad=0.149 pd=1.325 as=0.1664 ps=1.8 w=0.64 l=0.15
X3 X a_27_47# VGND VNB sky130_fd_pr__nfet_01v8 ad=0.08775 pd=0.92 as=0.097 ps=0.975 w=0.65 l=0.15
X4 VGND a_27_47# X VNB sky130_fd_pr__nfet_01v8 ad=0.17225 pd=1.83 as=0.08775 ps=0.92 w=0.65 l=0.15
X5 VGND A a_27_47# VNB sky130_fd_pr__nfet_01v8 ad=0.097 pd=0.975 as=0.1092 ps=1.36 w=0.42 l=0.15
C0 A VGND 0.01989f
C1 X VGND 0.11126f
C2 a_27_47# VPWR 0.1533f
C3 a_27_47# VPB 0.07497f
C4 VPB VPWR 0.05279f
C5 a_27_47# A 0.15787f
C6 A VPWR 0.02211f
C7 a_27_47# X 0.14879f
C8 VPWR X 0.16899f
C9 VPB A 0.06973f
C10 a_27_47# VGND 0.12719f
C11 VPB X 0.00443f
C12 VPWR VGND 0.05175f
C13 VPB VGND 0.00642f
C14 A X 0.00306f
C15 VGND VNB 0.28418f
C16 X VNB 0.0215f
C17 VPWR VNB 0.24963f
C18 A VNB 0.18747f
C19 VPB VNB 0.42757f
C20 a_27_47# VNB 0.28447f
.ends

.subckt sky130_fd_sc_hd__inv_2 A Y VPB VNB VPWR VGND
X0 Y A VPWR VPB sky130_fd_pr__pfet_01v8_hvt ad=0.135 pd=1.27 as=0.26 ps=2.52 w=1 l=0.15
X1 VGND A Y VNB sky130_fd_pr__nfet_01v8 ad=0.169 pd=1.82 as=0.08775 ps=0.92 w=0.65 l=0.15
X2 Y A VGND VNB sky130_fd_pr__nfet_01v8 ad=0.08775 pd=0.92 as=0.169 ps=1.82 w=0.65 l=0.15
X3 VPWR A Y VPB sky130_fd_pr__pfet_01v8_hvt ad=0.26 pd=2.52 as=0.135 ps=1.27 w=1 l=0.15
C0 VPB Y 0.0061f
C1 VPB A 0.07418f
C2 A Y 0.08939f
C3 VPB VPWR 0.05206f
C4 VPWR Y 0.2091f
C5 VPB VGND 0.00649f
C6 Y VGND 0.1546f
C7 A VPWR 0.06305f
C8 A VGND 0.06375f
C9 VPWR VGND 0.04227f
C10 VGND VNB 0.26619f
C11 Y VNB 0.03316f
C12 VPWR VNB 0.24604f
C13 A VNB 0.26281f
C14 VPB VNB 0.33898f
.ends

.subckt sky130_fd_sc_hd__mux4_1 VNB VPB VGND VPWR A1 A0 S0 A3 A2 S1 X a_1290_413#
+ a_757_363# a_1478_413# a_277_47# a_750_97# a_27_413# a_923_363# a_193_47# a_834_97#
+ a_247_21# a_668_97# a_193_413# a_27_47#
X0 a_277_47# a_247_21# a_27_413# VPB sky130_fd_pr__pfet_01v8_hvt ad=0.0567 pd=0.69 as=0.1092 ps=1.36 w=0.42 l=0.15
X1 VGND S0 a_247_21# VNB sky130_fd_pr__nfet_01v8 ad=0.1092 pd=1.36 as=0.1092 ps=1.36 w=0.42 l=0.15
X2 a_834_97# a_247_21# a_750_97# VNB sky130_fd_pr__nfet_01v8 ad=0.10795 pd=1.36 as=0.0567 ps=0.69 w=0.42 l=0.15
X3 VGND A3 a_668_97# VNB sky130_fd_pr__nfet_01v8 ad=0.0567 pd=0.69 as=0.1079 ps=1.36 w=0.42 l=0.15
X4 a_1290_413# S1 VPWR VPB sky130_fd_pr__pfet_01v8_hvt ad=0.1092 pd=1.36 as=0.1092 ps=1.36 w=0.42 l=0.15
X5 a_834_97# A2 VGND VNB sky130_fd_pr__nfet_01v8 ad=0.1092 pd=1.36 as=0.0567 ps=0.69 w=0.42 l=0.15
X6 a_750_97# S0 a_757_363# VPB sky130_fd_pr__pfet_01v8_hvt ad=0.0567 pd=0.69 as=0.1079 ps=1.36 w=0.42 l=0.15
X7 a_27_47# S0 a_277_47# VNB sky130_fd_pr__nfet_01v8 ad=0.1092 pd=1.36 as=0.08523 ps=0.925 w=0.42 l=0.15
X8 X a_1478_413# VGND VNB sky130_fd_pr__nfet_01v8 ad=0.169 pd=1.82 as=0.169 ps=1.82 w=0.65 l=0.15
X9 VPWR A1 a_27_413# VPB sky130_fd_pr__pfet_01v8_hvt ad=0.0567 pd=0.69 as=0.1092 ps=1.36 w=0.42 l=0.15
X10 VPWR S0 a_247_21# VPB sky130_fd_pr__pfet_01v8_hvt ad=0.1079 pd=1.36 as=0.1083 ps=1.36 w=0.42 l=0.15
X11 X a_1478_413# VPWR VPB sky130_fd_pr__pfet_01v8_hvt ad=0.26 pd=2.52 as=0.26 ps=2.52 w=1 l=0.15
X12 a_193_47# A0 VGND VNB sky130_fd_pr__nfet_01v8 ad=0.0567 pd=0.69 as=0.0567 ps=0.69 w=0.42 l=0.15
X13 a_750_97# a_1290_413# a_1478_413# VPB sky130_fd_pr__pfet_01v8_hvt ad=0.2688 pd=2.12 as=0.09207 ps=0.99 w=0.42 l=0.15
X14 a_1478_413# S1 a_277_47# VPB sky130_fd_pr__pfet_01v8_hvt ad=0.09207 pd=0.99 as=0.1092 ps=1.36 w=0.42 l=0.15
X15 a_1290_413# S1 VGND VNB sky130_fd_pr__nfet_01v8 ad=0.1092 pd=1.36 as=0.1092 ps=1.36 w=0.42 l=0.15
X16 a_277_47# a_247_21# a_193_47# VNB sky130_fd_pr__nfet_01v8 ad=0.08523 pd=0.925 as=0.0567 ps=0.69 w=0.42 l=0.15
X17 a_750_97# S0 a_668_97# VNB sky130_fd_pr__nfet_01v8 ad=0.0567 pd=0.69 as=0.1092 ps=1.36 w=0.42 l=0.15
X18 a_923_363# a_247_21# a_750_97# VPB sky130_fd_pr__pfet_01v8_hvt ad=0.09013 pd=0.995 as=0.0567 ps=0.69 w=0.42 l=0.15
X19 a_757_363# A2 VPWR VPB sky130_fd_pr__pfet_01v8_hvt ad=0.1092 pd=1.36 as=0.0567 ps=0.69 w=0.42 l=0.15
X20 VPWR A3 a_923_363# VPB sky130_fd_pr__pfet_01v8_hvt ad=0.0567 pd=0.69 as=0.09013 ps=0.995 w=0.42 l=0.15
X21 a_277_47# a_1290_413# a_1478_413# VNB sky130_fd_pr__nfet_01v8 ad=0.1092 pd=1.36 as=0.15102 ps=1.285 w=0.42 l=0.15
X22 a_193_413# A0 VPWR VPB sky130_fd_pr__pfet_01v8_hvt ad=0.1092 pd=1.36 as=0.0567 ps=0.69 w=0.42 l=0.15
X23 a_193_413# S0 a_277_47# VPB sky130_fd_pr__pfet_01v8_hvt ad=0.1079 pd=1.36 as=0.0567 ps=0.69 w=0.42 l=0.15
X24 VGND A1 a_27_47# VNB sky130_fd_pr__nfet_01v8 ad=0.0567 pd=0.69 as=0.1092 ps=1.36 w=0.42 l=0.15
X25 a_1478_413# S1 a_750_97# VNB sky130_fd_pr__nfet_01v8 ad=0.15102 pd=1.285 as=0.1092 ps=1.36 w=0.42 l=0.15
C0 a_1478_413# a_750_97# 0.1456f
C1 VPWR VGND 0.05896f
C2 S0 a_247_21# 0.39319f
C3 a_668_97# S0 0.03f
C4 VGND S1 0.04087f
C5 A0 a_750_97# 0
C6 a_27_413# VGND 0.00189f
C7 a_247_21# A2 0.00145f
C8 a_277_47# a_750_97# 0.26678f
C9 VGND a_193_413# 0
C10 a_247_21# a_27_47# 0.0457f
C11 a_757_363# a_750_97# 0.13413f
C12 a_1290_413# a_834_97# 0.01242f
C13 A1 VPB 0.0741f
C14 S0 A0 0.00186f
C15 S0 a_277_47# 0.03381f
C16 VGND X 0.05939f
C17 a_277_47# A2 0.01375f
C18 A0 a_27_47# 0.04574f
C19 VGND a_247_21# 0.09412f
C20 a_668_97# VGND 0.22352f
C21 S0 a_757_363# 0.03305f
C22 a_277_47# a_27_47# 0.08551f
C23 A3 a_834_97# 0.03609f
C24 A2 a_757_363# 0.03541f
C25 VPB a_834_97# 0.00426f
C26 VGND a_1478_413# 0.18885f
C27 VPWR A1 0.01712f
C28 A1 a_27_413# 0.0413f
C29 a_1290_413# A3 0
C30 A1 a_193_413# 0
C31 VGND A0 0.01709f
C32 a_1290_413# VPB 0.14223f
C33 VGND a_277_47# 0.41112f
C34 S0 a_750_97# 0.09449f
C35 VPWR a_834_97# 0
C36 A2 a_750_97# 0.01619f
C37 S1 a_834_97# 0.00189f
C38 VPB A3 0.07252f
C39 A1 a_247_21# 0
C40 VPWR a_1290_413# 0.0823f
C41 a_923_363# a_834_97# 0
C42 a_1290_413# S1 0.15612f
C43 S0 a_27_47# 0.01792f
C44 a_1290_413# a_923_363# 0
C45 VGND a_750_97# 0.05676f
C46 VPWR A3 0.012f
C47 a_247_21# a_834_97# 0.02707f
C48 A3 S1 0
C49 A1 A0 0.14123f
C50 VPWR a_193_47# 0
C51 a_668_97# a_834_97# 0.05583f
C52 VPWR VPB 0.22689f
C53 VPB S1 0.21534f
C54 A1 a_277_47# 0.00101f
C55 a_27_413# VPB 0.02285f
C56 a_1290_413# X 0.00208f
C57 a_193_413# VPB 0.01733f
C58 A3 a_923_363# 0
C59 S0 VGND 0.06675f
C60 a_1290_413# a_247_21# 0.00705f
C61 a_668_97# a_1290_413# 0
C62 VGND A2 0.0122f
C63 a_1290_413# a_1478_413# 0.10432f
C64 VGND a_27_47# 0.22952f
C65 a_277_47# a_834_97# 0.04391f
C66 VPWR S1 0.0409f
C67 VPB X 0.01181f
C68 VPWR a_27_413# 0.08385f
C69 a_247_21# A3 0.07395f
C70 a_668_97# A3 0.0033f
C71 VPWR a_193_413# 0.18442f
C72 a_757_363# a_834_97# 0.01352f
C73 a_247_21# VPB 0.22297f
C74 a_668_97# VPB 0.00146f
C75 a_27_413# a_193_413# 0.05551f
C76 a_1290_413# a_277_47# 0.33858f
C77 A1 a_750_97# 0
C78 VPWR a_923_363# 0.00225f
C79 a_1478_413# VPB 0.07712f
C80 a_1290_413# a_757_363# 0.0098f
C81 VPWR X 0.05937f
C82 S1 X 0
C83 A0 a_193_47# 0
C84 A0 VPB 0.08019f
C85 a_277_47# A3 0.0121f
C86 a_277_47# a_193_47# 0
C87 VPWR a_247_21# 0.15063f
C88 a_668_97# VPWR 0.00181f
C89 a_277_47# VPB 0.03677f
C90 a_750_97# a_834_97# 0.0296f
C91 a_247_21# S1 0
C92 a_27_413# a_247_21# 0.00549f
C93 VPWR a_1478_413# 0.21151f
C94 A3 a_757_363# 0.03224f
C95 a_193_413# a_247_21# 0.09132f
C96 a_1478_413# S1 0.00517f
C97 A1 a_27_47# 0.03909f
C98 VPB a_757_363# 0.0237f
C99 a_1290_413# a_750_97# 0.17579f
C100 S0 a_834_97# 0
C101 VPWR A0 0.01747f
C102 a_27_413# A0 0.04892f
C103 A2 a_834_97# 0.04394f
C104 VPWR a_277_47# 0.05706f
C105 a_277_47# S1 0.06116f
C106 a_247_21# X 0
C107 a_27_413# a_277_47# 0.05408f
C108 a_193_413# A0 0.00145f
C109 A1 VGND 0.01705f
C110 A3 a_750_97# 0.03406f
C111 a_193_413# a_277_47# 0.0594f
C112 a_1478_413# X 0.12698f
C113 a_668_97# a_247_21# 0.01881f
C114 VPWR a_757_363# 0.24812f
C115 VPB a_750_97# 0.05933f
C116 a_757_363# S1 0.00151f
C117 a_1290_413# A2 0.00165f
C118 a_247_21# a_1478_413# 0
C119 a_923_363# a_757_363# 0.00988f
C120 S0 A3 0.00317f
C121 a_277_47# X 0
C122 VGND a_834_97# 0.09477f
C123 S0 VPB 0.31074f
C124 a_247_21# A0 0.07359f
C125 A2 A3 0.15492f
C126 a_247_21# a_277_47# 0.35203f
C127 a_668_97# a_277_47# 0.02235f
C128 A2 VPB 0.07872f
C129 VPWR a_750_97# 0.22609f
C130 a_750_97# S1 0.06323f
C131 A3 a_27_47# 0
C132 a_27_413# a_750_97# 0
C133 a_27_47# a_193_47# 0.00648f
C134 VPB a_27_47# 0.00324f
C135 a_1290_413# VGND 0.06373f
C136 a_277_47# a_1478_413# 0.09435f
C137 a_193_413# a_750_97# 0
C138 a_247_21# a_757_363# 0.02645f
C139 a_923_363# a_750_97# 0.00222f
C140 VPWR S0 0.0687f
C141 a_277_47# A0 0.05427f
C142 S0 a_27_413# 0
C143 VPWR A2 0.0129f
C144 VGND A3 0.01161f
C145 A2 S1 0.06853f
C146 a_750_97# X 0
C147 VGND a_193_47# 0.00175f
C148 S0 a_193_413# 0.01772f
C149 VGND VPB 0.01387f
C150 VPWR a_27_47# 0.0018f
C151 a_27_413# a_27_47# 0.00987f
C152 a_247_21# a_750_97# 0.12371f
C153 a_277_47# a_757_363# 0
C154 a_668_97# a_750_97# 0.04662f
C155 VGND VNB 1.07507f
C156 X VNB 0.09236f
C157 S1 VNB 0.32062f
C158 A2 VNB 0.11249f
C159 A3 VNB 0.11926f
C160 S0 VNB 0.46486f
C161 VPWR VNB 0.86887f
C162 A0 VNB 0.10257f
C163 A1 VNB 0.17585f
C164 VPB VNB 1.9337f
C165 a_834_97# VNB 0.02499f
C166 a_668_97# VNB 0.02039f
C167 a_27_47# VNB 0.04207f
C168 a_1478_413# VNB 0.16413f
C169 a_1290_413# VNB 0.2199f
C170 a_750_97# VNB 0.04192f
C171 a_757_363# VNB 0.00666f
C172 a_277_47# VNB 0.07984f
C173 a_247_21# VNB 0.34344f
C174 a_193_413# VNB 0.00373f
C175 a_27_413# VNB 0.02865f
.ends

.subckt sky130_fd_sc_hd__o21a_2 VNB VPB VGND VPWR X B1 A2 A1 a_384_47# a_470_297#
+ a_79_21#
X0 VPWR A1 a_470_297# VPB sky130_fd_pr__pfet_01v8_hvt ad=0.265 pd=2.53 as=0.16 ps=1.32 w=1 l=0.15
X1 a_79_21# B1 VPWR VPB sky130_fd_pr__pfet_01v8_hvt ad=0.14 pd=1.28 as=0.4 ps=1.8 w=1 l=0.15
X2 VGND a_79_21# X VNB sky130_fd_pr__nfet_01v8 ad=0.17225 pd=1.83 as=0.08937 ps=0.925 w=0.65 l=0.15
X3 VGND A2 a_384_47# VNB sky130_fd_pr__nfet_01v8 ad=0.104 pd=0.97 as=0.091 ps=0.93 w=0.65 l=0.15
X4 a_470_297# A2 a_79_21# VPB sky130_fd_pr__pfet_01v8_hvt ad=0.16 pd=1.32 as=0.14 ps=1.28 w=1 l=0.15
X5 VPWR a_79_21# X VPB sky130_fd_pr__pfet_01v8_hvt ad=0.4 pd=1.8 as=0.1375 ps=1.275 w=1 l=0.15
X6 a_384_47# B1 a_79_21# VNB sky130_fd_pr__nfet_01v8 ad=0.091 pd=0.93 as=0.17225 ps=1.83 w=0.65 l=0.15
X7 a_384_47# A1 VGND VNB sky130_fd_pr__nfet_01v8 ad=0.17225 pd=1.83 as=0.104 ps=0.97 w=0.65 l=0.15
X8 X a_79_21# VPWR VPB sky130_fd_pr__pfet_01v8_hvt ad=0.1375 pd=1.275 as=0.26 ps=2.52 w=1 l=0.15
X9 X a_79_21# VGND VNB sky130_fd_pr__nfet_01v8 ad=0.08937 pd=0.925 as=0.169 ps=1.82 w=0.65 l=0.15
C0 a_470_297# B1 0
C1 VPWR A1 0.04887f
C2 a_79_21# A2 0.04273f
C3 A2 VPB 0.03377f
C4 B1 VGND 0.01952f
C5 A1 a_384_47# 0.03864f
C6 X VGND 0.10592f
C7 A2 B1 0.09948f
C8 a_79_21# A1 0.0024f
C9 A1 VPB 0.04016f
C10 VPWR a_384_47# 0.00722f
C11 A1 B1 0
C12 a_79_21# VPWR 0.2223f
C13 VPWR VPB 0.079f
C14 a_470_297# VGND 0.00158f
C15 a_79_21# a_384_47# 0.03435f
C16 a_384_47# VPB 0
C17 VPWR B1 0.02419f
C18 a_470_297# A2 0.01159f
C19 VPWR X 0.13299f
C20 A2 VGND 0.01957f
C21 a_384_47# B1 0.00268f
C22 a_79_21# VPB 0.07954f
C23 a_79_21# B1 0.17323f
C24 VPB B1 0.03944f
C25 a_79_21# X 0.16252f
C26 A1 VGND 0.01757f
C27 X VPB 0.00507f
C28 A1 A2 0.09025f
C29 a_470_297# VPWR 0.01177f
C30 X B1 0
C31 VPWR VGND 0.07997f
C32 a_470_297# a_384_47# 0
C33 a_384_47# VGND 0.09661f
C34 VPWR A2 0.05921f
C35 a_79_21# a_470_297# 0.00478f
C36 A2 a_384_47# 0.05585f
C37 a_79_21# VGND 0.15845f
C38 VPB VGND 0.00643f
C39 VGND VNB 0.43148f
C40 X VNB 0.02758f
C41 VPWR VNB 0.38347f
C42 A1 VNB 0.15077f
C43 A2 VNB 0.10192f
C44 B1 VNB 0.1061f
C45 VPB VNB 0.69336f
C46 a_384_47# VNB 0.01898f
C47 a_79_21# VNB 0.24775f
.ends

.subckt sky130_fd_sc_hd__a221o_2 VPWR VGND VPB VNB C1 B2 B1 A1 A2 X a_193_297# a_465_47#
+ a_205_47# a_109_297# a_27_47#
X0 VPWR a_27_47# X VPB sky130_fd_pr__pfet_01v8_hvt ad=0.285 pd=2.57 as=0.135 ps=1.27 w=1 l=0.15
X1 a_465_47# A1 a_27_47# VNB sky130_fd_pr__nfet_01v8 ad=0.10725 pd=0.98 as=0.169 ps=1.82 w=0.65 l=0.15
X2 X a_27_47# VPWR VPB sky130_fd_pr__pfet_01v8_hvt ad=0.135 pd=1.27 as=0.1575 ps=1.315 w=1 l=0.15
X3 a_109_297# B1 a_193_297# VPB sky130_fd_pr__pfet_01v8_hvt ad=0.26 pd=2.52 as=0.135 ps=1.27 w=1 l=0.15
X4 a_193_297# B2 a_109_297# VPB sky130_fd_pr__pfet_01v8_hvt ad=0.135 pd=1.27 as=0.135 ps=1.27 w=1 l=0.15
X5 X a_27_47# VGND VNB sky130_fd_pr__nfet_01v8 ad=0.08775 pd=0.92 as=0.10238 ps=0.965 w=0.65 l=0.15
X6 a_205_47# B2 VGND VNB sky130_fd_pr__nfet_01v8 ad=0.06825 pd=0.86 as=0.10725 ps=0.98 w=0.65 l=0.15
X7 VPWR A2 a_193_297# VPB sky130_fd_pr__pfet_01v8_hvt ad=0.1575 pd=1.315 as=0.165 ps=1.33 w=1 l=0.15
X8 a_193_297# A1 VPWR VPB sky130_fd_pr__pfet_01v8_hvt ad=0.165 pd=1.33 as=0.26 ps=2.52 w=1 l=0.15
X9 a_27_47# B1 a_205_47# VNB sky130_fd_pr__nfet_01v8 ad=0.169 pd=1.82 as=0.06825 ps=0.86 w=0.65 l=0.15
X10 VGND a_27_47# X VNB sky130_fd_pr__nfet_01v8 ad=0.18525 pd=1.87 as=0.08775 ps=0.92 w=0.65 l=0.15
X11 a_109_297# C1 a_27_47# VPB sky130_fd_pr__pfet_01v8_hvt ad=0.135 pd=1.27 as=0.26 ps=2.52 w=1 l=0.15
X12 VGND C1 a_27_47# VNB sky130_fd_pr__nfet_01v8 ad=0.10725 pd=0.98 as=0.169 ps=1.82 w=0.65 l=0.15
X13 VGND A2 a_465_47# VNB sky130_fd_pr__nfet_01v8 ad=0.10238 pd=0.965 as=0.10725 ps=0.98 w=0.65 l=0.15
C0 VPWR a_193_297# 0.16924f
C1 a_109_297# C1 0.00739f
C2 VGND a_193_297# 0.00438f
C3 a_27_47# A1 0.09838f
C4 B1 B2 0.07843f
C5 B1 VPWR 0.00982f
C6 X a_193_297# 0.00367f
C7 B1 VGND 0.01327f
C8 a_109_297# a_193_297# 0.09272f
C9 A1 VPB 0.0343f
C10 B1 X 0
C11 B1 a_109_297# 0.00736f
C12 A1 A2 0.06924f
C13 A1 VPWR 0.01613f
C14 a_27_47# a_205_47# 0.00762f
C15 a_27_47# VPB 0.08209f
C16 A1 VGND 0.01257f
C17 A1 X 0
C18 a_465_47# A1 0
C19 a_27_47# B2 0.09593f
C20 a_27_47# A2 0.15296f
C21 A1 a_109_297# 0
C22 a_27_47# VPWR 0.11848f
C23 a_27_47# VGND 0.41486f
C24 B1 C1 0
C25 VPB B2 0.02556f
C26 A2 VPB 0.02696f
C27 VPWR a_205_47# 0
C28 VPWR VPB 0.09413f
C29 a_27_47# X 0.12862f
C30 a_465_47# a_27_47# 0.01301f
C31 VGND a_205_47# 0.00156f
C32 VPB VGND 0.01028f
C33 a_27_47# a_109_297# 0.09613f
C34 B1 a_193_297# 0.00869f
C35 X VPB 0.00423f
C36 VPWR B2 0.00842f
C37 A2 VPWR 0.02093f
C38 A1 C1 0
C39 VGND B2 0.01744f
C40 A2 VGND 0.01675f
C41 a_109_297# VPB 0.00421f
C42 VPWR VGND 0.09384f
C43 X B2 0
C44 A2 X 0.00157f
C45 VPWR X 0.17541f
C46 a_465_47# VPWR 0
C47 a_109_297# B2 0.01335f
C48 A1 a_193_297# 0.01087f
C49 X VGND 0.12187f
C50 a_27_47# C1 0.07922f
C51 a_465_47# VGND 0.00257f
C52 VPWR a_109_297# 0.15013f
C53 a_109_297# VGND 0.00284f
C54 A1 B1 0.06093f
C55 a_465_47# X 0
C56 VPB C1 0.0368f
C57 X a_109_297# 0
C58 a_27_47# a_193_297# 0.14375f
C59 C1 B2 0.07257f
C60 A2 C1 0
C61 VPB a_193_297# 0.00774f
C62 a_27_47# B1 0.11237f
C63 VPWR C1 0.01404f
C64 VGND C1 0.01975f
C65 B1 VPB 0.03208f
C66 B2 a_193_297# 0.00126f
C67 A2 a_193_297# 0.00683f
C68 X C1 0
C69 VGND VNB 0.51852f
C70 X VNB 0.02003f
C71 VPWR VNB 0.44375f
C72 A2 VNB 0.08957f
C73 A1 VNB 0.10591f
C74 B1 VNB 0.10847f
C75 B2 VNB 0.08869f
C76 C1 VNB 0.13936f
C77 VPB VNB 0.87055f
C78 a_193_297# VNB 0.0011f
C79 a_109_297# VNB 0
C80 a_27_47# VNB 0.30506f
.ends

.subckt sky130_fd_sc_hd__mux2_1 VGND VPWR VPB VNB X A1 S A0 a_505_21# a_535_374# a_439_47#
+ a_218_47# a_76_199# a_218_374#
X0 VPWR a_505_21# a_535_374# VPB sky130_fd_pr__pfet_01v8_hvt ad=0.0693 pd=0.75 as=0.0441 ps=0.63 w=0.42 l=0.15
X1 a_505_21# S VPWR VPB sky130_fd_pr__pfet_01v8_hvt ad=0.1176 pd=1.4 as=0.0693 ps=0.75 w=0.42 l=0.15
X2 a_218_374# S VPWR VPB sky130_fd_pr__pfet_01v8_hvt ad=0.07665 pd=0.785 as=0.15835 ps=1.395 w=0.42 l=0.15
X3 VGND a_505_21# a_439_47# VNB sky130_fd_pr__nfet_01v8 ad=0.1449 pd=1.11 as=0.0693 ps=0.75 w=0.42 l=0.15
X4 a_76_199# A0 a_218_374# VPB sky130_fd_pr__pfet_01v8_hvt ad=0.1932 pd=1.34 as=0.07665 ps=0.785 w=0.42 l=0.15
X5 a_505_21# S VGND VNB sky130_fd_pr__nfet_01v8 ad=0.1092 pd=1.36 as=0.1449 ps=1.11 w=0.42 l=0.15
X6 a_439_47# A0 a_76_199# VNB sky130_fd_pr__nfet_01v8 ad=0.0693 pd=0.75 as=0.09975 ps=0.895 w=0.42 l=0.15
X7 a_535_374# A1 a_76_199# VPB sky130_fd_pr__pfet_01v8_hvt ad=0.0441 pd=0.63 as=0.1932 ps=1.34 w=0.42 l=0.15
X8 a_76_199# A1 a_218_47# VNB sky130_fd_pr__nfet_01v8 ad=0.09975 pd=0.895 as=0.0693 ps=0.75 w=0.42 l=0.15