*SPEF "ieee 1481-1999"
*DESIGN "pmu"
*DATE "16:09:24 Saturday January 24, 2026"
*VENDOR "The OpenROAD Project"
*PROGRAM "OpenROAD"
*VERSION "v2.0-16235-gedf00dff9"
*DESIGN_FLOW "NAME_SCOPE LOCAL" "PIN_CAP NONE"
*DIVIDER /
*DELIMITER :
*BUS_DELIMITER []
*T_UNIT 1 NS
*C_UNIT 1 PF
*R_UNIT 1 OHM
*L_UNIT 1 HENRY

*NAME_MAP
*3 clk
*4 delay_sel[0]
*5 delay_sel[1]
*6 delay_sel[2]
*7 path[0]
*8 path[1]
*9 path[2]
*10 path[3]
*11 path[4]
*12 path[5]
*13 path[6]
*14 path[7]
*15 path_sel[0]
*16 path_sel[1]
*17 path_sel[2]
*18 rst
*19 se
*20 tdi
*21 tdo
*22 _00_
*23 _01_
*24 _02_
*25 _03_
*26 _04_
*27 _05_
*28 _06_
*29 _07_
*30 _08_
*31 _09_
*32 _10_
*33 capture_d
*34 capture_q
*35 clknet_0_clk
*36 clknet_1_0__leaf_clk
*37 clknet_1_1__leaf_clk
*38 dc_inst\.in
*39 dc_inst\.net1
*40 dc_inst\.net2
*41 dc_inst\.net3
*42 dc_inst\.net4
*43 dc_inst\.net5
*44 dc_inst\.net6
*45 dc_inst\.net7
*46 dc_inst\.net8
*47 dc_inst\.net9
*48 dc_inst\.x1\.net1
*49 dc_inst\.x1\.net10
*50 dc_inst\.x1\.net11
*51 dc_inst\.x1\.net12
*52 dc_inst\.x1\.net13
*53 dc_inst\.x1\.net14
*54 dc_inst\.x1\.net15
*55 dc_inst\.x1\.net16
*56 dc_inst\.x1\.net17
*57 dc_inst\.x1\.net18
*58 dc_inst\.x1\.net19
*59 dc_inst\.x1\.net2
*60 dc_inst\.x1\.net3
*61 dc_inst\.x1\.net4
*62 dc_inst\.x1\.net5
*63 dc_inst\.x1\.net6
*64 dc_inst\.x1\.net7
*65 dc_inst\.x1\.net8
*66 dc_inst\.x1\.net9
*67 dc_inst\.x2\.net1
*68 dc_inst\.x2\.net10
*69 dc_inst\.x2\.net11
*70 dc_inst\.x2\.net12
*71 dc_inst\.x2\.net13
*72 dc_inst\.x2\.net14
*73 dc_inst\.x2\.net15
*74 dc_inst\.x2\.net16
*75 dc_inst\.x2\.net17
*76 dc_inst\.x2\.net18
*77 dc_inst\.x2\.net19
*78 dc_inst\.x2\.net2
*79 dc_inst\.x2\.net3
*80 dc_inst\.x2\.net4
*81 dc_inst\.x2\.net5
*82 dc_inst\.x2\.net6
*83 dc_inst\.x2\.net7
*84 dc_inst\.x2\.net8
*85 dc_inst\.x2\.net9
*86 dc_inst\.x3\.net1
*87 dc_inst\.x3\.net10
*88 dc_inst\.x3\.net11
*89 dc_inst\.x3\.net12
*90 dc_inst\.x3\.net13
*91 dc_inst\.x3\.net14
*92 dc_inst\.x3\.net15
*93 dc_inst\.x3\.net16
*94 dc_inst\.x3\.net17
*95 dc_inst\.x3\.net18
*96 dc_inst\.x3\.net19
*97 dc_inst\.x3\.net2
*98 dc_inst\.x3\.net3
*99 dc_inst\.x3\.net4
*100 dc_inst\.x3\.net5
*101 dc_inst\.x3\.net6
*102 dc_inst\.x3\.net7
*103 dc_inst\.x3\.net8
*104 dc_inst\.x3\.net9
*105 dc_inst\.x4\.net1
*106 dc_inst\.x4\.net10
*107 dc_inst\.x4\.net11
*108 dc_inst\.x4\.net12
*109 dc_inst\.x4\.net13
*110 dc_inst\.x4\.net14
*111 dc_inst\.x4\.net15
*112 dc_inst\.x4\.net16
*113 dc_inst\.x4\.net17
*114 dc_inst\.x4\.net18
*115 dc_inst\.x4\.net19
*116 dc_inst\.x4\.net2
*117 dc_inst\.x4\.net3
*118 dc_inst\.x4\.net4
*119 dc_inst\.x4\.net5
*120 dc_inst\.x4\.net6
*121 dc_inst\.x4\.net7
*122 dc_inst\.x4\.net8
*123 dc_inst\.x4\.net9
*124 dc_inst\.x5\.net1
*125 dc_inst\.x5\.net10
*126 dc_inst\.x5\.net11
*127 dc_inst\.x5\.net12
*128 dc_inst\.x5\.net13
*129 dc_inst\.x5\.net14
*130 dc_inst\.x5\.net15
*131 dc_inst\.x5\.net16
*132 dc_inst\.x5\.net17
*133 dc_inst\.x5\.net18
*134 dc_inst\.x5\.net19
*135 dc_inst\.x5\.net2
*136 dc_inst\.x5\.net3
*137 dc_inst\.x5\.net4
*138 dc_inst\.x5\.net5
*139 dc_inst\.x5\.net6
*140 dc_inst\.x5\.net7
*141 dc_inst\.x5\.net8
*142 dc_inst\.x5\.net9
*143 dc_inst\.x6\.net1
*144 dc_inst\.x6\.net10
*145 dc_inst\.x6\.net11
*146 dc_inst\.x6\.net12
*147 dc_inst\.x6\.net13
*148 dc_inst\.x6\.net14
*149 dc_inst\.x6\.net15
*150 dc_inst\.x6\.net16
*151 dc_inst\.x6\.net17
*152 dc_inst\.x6\.net18
*153 dc_inst\.x6\.net19
*154 dc_inst\.x6\.net2
*155 dc_inst\.x6\.net3
*156 dc_inst\.x6\.net4
*157 dc_inst\.x6\.net5
*158 dc_inst\.x6\.net6
*159 dc_inst\.x6\.net7
*160 dc_inst\.x6\.net8
*161 dc_inst\.x6\.net9
*162 dc_inst\.x7\.net1
*163 dc_inst\.x7\.net10
*164 dc_inst\.x7\.net11
*165 dc_inst\.x7\.net12
*166 dc_inst\.x7\.net13
*167 dc_inst\.x7\.net14
*168 dc_inst\.x7\.net15
*169 dc_inst\.x7\.net16
*170 dc_inst\.x7\.net17
*171 dc_inst\.x7\.net18
*172 dc_inst\.x7\.net19
*173 dc_inst\.x7\.net2
*174 dc_inst\.x7\.net3
*175 dc_inst\.x7\.net4
*176 dc_inst\.x7\.net5
*177 dc_inst\.x7\.net6
*178 dc_inst\.x7\.net7
*179 dc_inst\.x7\.net8
*180 dc_inst\.x7\.net9
*181 shadow_q
*182 FILLER_0_12
*183 FILLER_0_53
*184 FILLER_0_57
*185 FILLER_0_60
*186 FILLER_0_69
*187 FILLER_10_3
*188 FILLER_10_69
*189 FILLER_11_29
*190 FILLER_11_3
*191 FILLER_11_69
*192 FILLER_1_11
*193 FILLER_1_3
*194 FILLER_1_34
*195 FILLER_1_57
*196 FILLER_1_60
*197 FILLER_2_13
*198 FILLER_2_19
*199 FILLER_2_24
*200 FILLER_2_3
*201 FILLER_2_44
*202 FILLER_2_54
*203 FILLER_2_8
*204 FILLER_3_34
*205 FILLER_3_39
*206 FILLER_3_43
*207 FILLER_3_48
*208 FILLER_3_57
*209 FILLER_3_68
*210 FILLER_3_9
*211 FILLER_4_18
*212 FILLER_4_29
*213 FILLER_4_3
*214 FILLER_4_37
*215 FILLER_4_69
*216 FILLER_4_7
*217 FILLER_5_14
*218 FILLER_5_3
*219 FILLER_5_31
*220 FILLER_5_43
*221 FILLER_5_48
*222 FILLER_5_57
*223 FILLER_5_68
*224 FILLER_6_27
*225 FILLER_6_3
*226 FILLER_6_32
*227 FILLER_6_35
*228 FILLER_6_48
*229 FILLER_7_3
*230 FILLER_7_55
*231 FILLER_7_69
*232 FILLER_7_7
*233 FILLER_8_3
*234 FILLER_8_44
*235 FILLER_8_69
*236 FILLER_9_23
*237 FILLER_9_48
*238 FILLER_9_69
*239 PHY_EDGE_ROW_0_Left_12
*240 PHY_EDGE_ROW_0_Right_0
*241 PHY_EDGE_ROW_10_Left_22
*242 PHY_EDGE_ROW_10_Right_10
*243 PHY_EDGE_ROW_11_Left_23
*244 PHY_EDGE_ROW_11_Right_11
*245 PHY_EDGE_ROW_1_Left_13
*246 PHY_EDGE_ROW_1_Right_1
*247 PHY_EDGE_ROW_2_Left_14
*248 PHY_EDGE_ROW_2_Right_2
*249 PHY_EDGE_ROW_3_Left_15
*250 PHY_EDGE_ROW_3_Right_3
*251 PHY_EDGE_ROW_4_Left_16
*252 PHY_EDGE_ROW_4_Right_4
*253 PHY_EDGE_ROW_5_Left_17
*254 PHY_EDGE_ROW_5_Right_5
*255 PHY_EDGE_ROW_6_Left_18
*256 PHY_EDGE_ROW_6_Right_6
*257 PHY_EDGE_ROW_7_Left_19
*258 PHY_EDGE_ROW_7_Right_7
*259 PHY_EDGE_ROW_8_Left_20
*260 PHY_EDGE_ROW_8_Right_8
*261 PHY_EDGE_ROW_9_Left_21
*262 PHY_EDGE_ROW_9_Right_9
*263 TAP_TAPCELL_ROW_0_24
*264 TAP_TAPCELL_ROW_0_25
*265 TAP_TAPCELL_ROW_10_35
*266 TAP_TAPCELL_ROW_11_36
*267 TAP_TAPCELL_ROW_11_37
*268 TAP_TAPCELL_ROW_1_26
*269 TAP_TAPCELL_ROW_2_27
*270 TAP_TAPCELL_ROW_3_28
*271 TAP_TAPCELL_ROW_4_29
*272 TAP_TAPCELL_ROW_5_30
*273 TAP_TAPCELL_ROW_6_31
*274 TAP_TAPCELL_ROW_7_32
*275 TAP_TAPCELL_ROW_8_33
*276 TAP_TAPCELL_ROW_9_34
*277 _11_
*278 _12_
*279 _13_
*280 _14_
*281 _15_
*282 _16_
*283 _17_
*284 _18_
*285 _19_
*286 _20_
*287 _21_
*288 _22_
*289 _23_
*290 _24_
*291 _25_
*292 clkbuf_0_clk
*293 clkbuf_1_0__f_clk
*294 clkbuf_1_1__f_clk
*295 clkload0
*296 dc_inst\.x1\.x1
*297 dc_inst\.x1\.x10
*298 dc_inst\.x1\.x11
*299 dc_inst\.x1\.x12
*300 dc_inst\.x1\.x13
*301 dc_inst\.x1\.x14
*302 dc_inst\.x1\.x15
*303 dc_inst\.x1\.x16
*304 dc_inst\.x1\.x17
*305 dc_inst\.x1\.x18
*306 dc_inst\.x1\.x19
*307 dc_inst\.x1\.x2
*308 dc_inst\.x1\.x20
*309 dc_inst\.x1\.x3
*310 dc_inst\.x1\.x4
*311 dc_inst\.x1\.x5
*312 dc_inst\.x1\.x6
*313 dc_inst\.x1\.x7
*314 dc_inst\.x1\.x8
*315 dc_inst\.x1\.x9
*316 dc_inst\.x10
*317 dc_inst\.x2\.x1
*318 dc_inst\.x2\.x10
*319 dc_inst\.x2\.x11
*320 dc_inst\.x2\.x12
*321 dc_inst\.x2\.x13
*322 dc_inst\.x2\.x14
*323 dc_inst\.x2\.x15
*324 dc_inst\.x2\.x16
*325 dc_inst\.x2\.x17
*326 dc_inst\.x2\.x18
*327 dc_inst\.x2\.x19
*328 dc_inst\.x2\.x2
*329 dc_inst\.x2\.x20
*330 dc_inst\.x2\.x3
*331 dc_inst\.x2\.x4
*332 dc_inst\.x2\.x5
*333 dc_inst\.x2\.x6
*334 dc_inst\.x2\.x7
*335 dc_inst\.x2\.x8
*336 dc_inst\.x2\.x9
*337 dc_inst\.x3\.x1
*338 dc_inst\.x3\.x10
*339 dc_inst\.x3\.x11
*340 dc_inst\.x3\.x12
*341 dc_inst\.x3\.x13
*342 dc_inst\.x3\.x14
*343 dc_inst\.x3\.x15
*344 dc_inst\.x3\.x16
*345 dc_inst\.x3\.x17
*346 dc_inst\.x3\.x18
*347 dc_inst\.x3\.x19
*348 dc_inst\.x3\.x2
*349 dc_inst\.x3\.x20
*350 dc_inst\.x3\.x3
*351 dc_inst\.x3\.x4
*352 dc_inst\.x3\.x5
*353 dc_inst\.x3\.x6
*354 dc_inst\.x3\.x7
*355 dc_inst\.x3\.x8
*356 dc_inst\.x3\.x9
*357 dc_inst\.x4\.x1
*358 dc_inst\.x4\.x10
*359 dc_inst\.x4\.x11
*360 dc_inst\.x4\.x12
*361 dc_inst\.x4\.x13
*362 dc_inst\.x4\.x14
*363 dc_inst\.x4\.x15
*364 dc_inst\.x4\.x16
*365 dc_inst\.x4\.x17
*366 dc_inst\.x4\.x18
*367 dc_inst\.x4\.x19
*368 dc_inst\.x4\.x2
*369 dc_inst\.x4\.x20
*370 dc_inst\.x4\.x3
*371 dc_inst\.x4\.x4
*372 dc_inst\.x4\.x5
*373 dc_inst\.x4\.x6
*374 dc_inst\.x4\.x7
*375 dc_inst\.x4\.x8
*376 dc_inst\.x4\.x9
*377 dc_inst\.x5\.x1
*378 dc_inst\.x5\.x10
*379 dc_inst\.x5\.x11
*380 dc_inst\.x5\.x12
*381 dc_inst\.x5\.x13
*382 dc_inst\.x5\.x14
*383 dc_inst\.x5\.x15
*384 dc_inst\.x5\.x16
*385 dc_inst\.x5\.x17
*386 dc_inst\.x5\.x18
*387 dc_inst\.x5\.x19
*388 dc_inst\.x5\.x2
*389 dc_inst\.x5\.x20
*390 dc_inst\.x5\.x3
*391 dc_inst\.x5\.x4
*392 dc_inst\.x5\.x5
*393 dc_inst\.x5\.x6
*394 dc_inst\.x5\.x7
*395 dc_inst\.x5\.x8
*396 dc_inst\.x5\.x9
*397 dc_inst\.x6\.x1
*398 dc_inst\.x6\.x10
*399 dc_inst\.x6\.x11
*400 dc_inst\.x6\.x12
*401 dc_inst\.x6\.x13
*402 dc_inst\.x6\.x14
*403 dc_inst\.x6\.x15
*404 dc_inst\.x6\.x16
*405 dc_inst\.x6\.x17
*406 dc_inst\.x6\.x18
*407 dc_inst\.x6\.x19
*408 dc_inst\.x6\.x2
*409 dc_inst\.x6\.x20
*410 dc_inst\.x6\.x3
*411 dc_inst\.x6\.x4
*412 dc_inst\.x6\.x5
*413 dc_inst\.x6\.x6
*414 dc_inst\.x6\.x7
*415 dc_inst\.x6\.x8
*416 dc_inst\.x6\.x9
*417 dc_inst\.x7\.x1
*418 dc_inst\.x7\.x10
*419 dc_inst\.x7\.x11
*420 dc_inst\.x7\.x12
*421 dc_inst\.x7\.x13
*422 dc_inst\.x7\.x14
*423 dc_inst\.x7\.x15
*424 dc_inst\.x7\.x16
*425 dc_inst\.x7\.x17
*426 dc_inst\.x7\.x18
*427 dc_inst\.x7\.x19
*428 dc_inst\.x7\.x2
*429 dc_inst\.x7\.x20
*430 dc_inst\.x7\.x3
*431 dc_inst\.x7\.x4
*432 dc_inst\.x7\.x5
*433 dc_inst\.x7\.x6
*434 dc_inst\.x7\.x7
*435 dc_inst\.x7\.x8
*436 dc_inst\.x7\.x9
*437 dc_inst\.x8
*438 dc_inst\.x9

*PORTS
clk I
delay_sel[0] I
delay_sel[1] I
delay_sel[2] I
path[0] I
path[1] I
path[2] I
path[3] I
path[4] I
path[5] I
path[6] I
path[7] I
path_sel[0] I
path_sel[1] I
path_sel[2] I
rst I
se I
tdi I
tdo O

*D_NET *3 0.00135219
*CONN
*P clk I
*I *292:A I *D sky130_fd_sc_hd__clkbuf_16
*CAP
1 clk 0.0006405
2 *292:A 0.0006405
3 *292:A *419:A 5.71472e-05
4 *292:A *420:A 1.40415e-05
*RES
1 clk *292:A 25.7464 
*END

*D_NET *4 0.00320657
*CONN
*P delay_sel[0] I
*I *438:S0 I *D sky130_fd_sc_hd__mux4_1
*I *437:S0 I *D sky130_fd_sc_hd__mux4_1
*CAP
1 delay_sel[0] 0.000523869
2 *438:S0 0
3 *437:S0 0.00075847
4 *4:13 0.00128234
5 *437:S0 *437:A1 2.59355e-05
6 *437:S0 *437:S1 0.000179453
7 *437:S0 *438:A0 2.14658e-05
8 *437:S0 *438:A2 1.89695e-05
9 *437:S0 *5:17 1.92691e-05
10 *4:13 *419:A 0
11 *4:13 *438:A0 0.000230482
12 *4:13 *438:A1 0
13 *4:13 *5:17 0.000146321
*RES
1 delay_sel[0] *4:13 15.2329 
2 *4:13 *437:S0 18.9071 
3 *4:13 *438:S0 9.3 
*END

*D_NET *5 0.00431478
*CONN
*P delay_sel[1] I
*I *437:S1 I *D sky130_fd_sc_hd__mux4_1
*I *438:S1 I *D sky130_fd_sc_hd__mux4_1
*CAP
1 delay_sel[1] 0.0011527
2 *437:S1 0.000489509
3 *438:S1 1.54455e-05
4 *5:17 0.00165765
5 *437:S1 *316:A0 0.00011342
6 *437:S1 *316:A1 0.000108558
7 *437:S1 *437:A1 5.33005e-05
8 *437:S1 *437:A2 3.49005e-05
9 *437:S1 *41:8 7.57394e-05
10 *438:S1 *428:A 5.83233e-05
11 *438:S1 *438:A3 3.17067e-05
12 *5:17 *291:CLK 0
13 *5:17 *420:A 1.53815e-05
14 *5:17 *421:A 0
15 *5:17 *422:A 4.79842e-05
16 *5:17 *438:A0 0.000105365
17 *5:17 *438:A2 9.75337e-06
18 *437:S0 *437:S1 0.000179453
19 *437:S0 *5:17 1.92691e-05
20 *4:13 *5:17 0.000146321
*RES
1 delay_sel[1] *5:17 24.9644 
2 *5:17 *438:S1 19.0321 
3 *5:17 *437:S1 19.4607 
*END

*D_NET *6 0.00380135
*CONN
*P delay_sel[2] I
*I *316:S I *D sky130_fd_sc_hd__mux2_1
*CAP
1 delay_sel[2] 0.00169755
2 *316:S 0.00169755
3 *316:S *278:A 7.27219e-05
4 *316:S *289:RESET_B 0.000103133
5 *316:S *290:CLK 0.00022117
6 *316:S *291:D 0
7 *316:S *430:A 9.22103e-06
*RES
1 delay_sel[2] *316:S 34.3423 
*END

*D_NET *7 0.0014769
*CONN
*P path[0] I
*I *283:A1 I *D sky130_fd_sc_hd__o21ba_2
*CAP
1 path[0] 0.000694732
2 *283:A1 0.000694732
3 *283:A1 *282:A_N 8.74324e-05
4 *283:A1 *15:9 0
5 *283:A1 *15:26 0
*RES
1 path[0] *283:A1 28.3722 
*END

*D_NET *8 0.000719453
*CONN
*P path[1] I
*I *282:A_N I *D sky130_fd_sc_hd__nand2b_2
*CAP
1 path[1] 0.00031601
2 *282:A_N 0.00031601
3 *282:A_N *284:A0 0
4 *282:A_N *15:9 0
5 *282:A_N *15:26 0
6 *283:A1 *282:A_N 8.74324e-05
*RES
1 path[1] *282:A_N 20.0163 
*END

*D_NET *9 0.000624857
*CONN
*P path[2] I
*I *284:A0 I *D sky130_fd_sc_hd__mux2_1
*CAP
1 path[2] 0.000296525
2 *284:A0 0.000296525
3 *284:A0 *284:A1 0
4 *284:A0 *285:A2 2.22043e-05
5 *284:A0 *15:30 9.60337e-06
6 *282:A_N *284:A0 0
*RES
1 path[2] *284:A0 18.3391 
*END

*D_NET *10 0.00143464
*CONN
*P path[3] I
*I *284:A1 I *D sky130_fd_sc_hd__mux2_1
*CAP
1 path[3] 0.000421953
2 *284:A1 0.000421953
3 *284:A1 *281:A0 0
4 *284:A1 *281:S0 0.000391829
5 *284:A1 *285:A2 0.0001098
6 *284:A1 *286:B1 7.88542e-05
7 *284:A1 *299:A 0
8 *284:A1 *15:30 1.02504e-05
9 *284:A0 *284:A1 0
*RES
1 path[3] *284:A1 23.1241 
*END

*D_NET *11 0.00083351
*CONN
*P path[4] I
*I *281:A0 I *D sky130_fd_sc_hd__mux4_2
*CAP
1 path[4] 0.000387593
2 *281:A0 0.000387593
3 *281:A0 *281:A1 0
4 *281:A0 *281:S0 5.83233e-05
5 *281:A0 *309:A 0
6 *284:A1 *281:A0 0
*RES
1 path[4] *281:A0 20.0884 
*END

*D_NET *12 0.00215149
*CONN
*P path[5] I
*I *281:A1 I *D sky130_fd_sc_hd__mux4_2
*CAP
1 path[5] 0.000852678
2 *281:A1 0.000852678
3 *281:A1 *281:A2 0
4 *281:A1 *281:A3 5.73876e-05
5 *281:A1 *309:A 0.000120645
6 *281:A1 *342:A 0
7 *281:A1 *343:A 0.000268097
8 *281:A1 *349:A 0
9 *281:A1 *352:A 0
10 *281:A0 *281:A1 0
*RES
1 path[5] *281:A1 27.2434 
*END

*D_NET *13 0.00306491
*CONN
*P path[6] I
*I *281:A2 I *D sky130_fd_sc_hd__mux4_2
*CAP
1 path[6] 0.0013577
2 *281:A2 0.0013577
3 *281:A2 *279:B 4.25716e-05
4 *281:A2 *280:A0 0
5 *281:A2 *280:S 0
6 *281:A2 *281:A3 0
7 *281:A2 *281:S1 9.25014e-06
8 *281:A2 *290:RESET_B 0
9 *281:A2 *307:A 5.71472e-05
10 *281:A2 *309:A 0
11 *281:A2 *310:A 9.56872e-05
12 *281:A2 *337:A 0
13 *281:A2 *339:A 0
14 *281:A2 *345:A 0
15 *281:A2 *349:A 6.09572e-05
16 *281:A2 *350:A 0
17 *281:A2 *352:A 8.39e-05
18 *281:A2 *355:A 0
19 *281:A2 *40:8 0
20 *281:A1 *281:A2 0
*RES
1 path[6] *281:A2 33.5597 
*END

*D_NET *14 0.00366993
*CONN
*P path[7] I
*I *281:A3 I *D sky130_fd_sc_hd__mux4_2
*CAP
1 path[7] 0.00175949
2 *281:A3 0.00175949
3 *281:A3 *280:A1 0
4 *281:A3 *281:S0 3.64221e-05
5 *281:A3 *281:S1 5.71472e-05
6 *281:A3 *340:A 0
7 *281:A3 *341:A 0
8 *281:A1 *281:A3 5.73876e-05
9 *281:A2 *281:A3 0
*RES
1 path[7] *281:A3 46.7131 
*END

*D_NET *15 0.00613956
*CONN
*P path_sel[0] I
*I *283:A2 I *D sky130_fd_sc_hd__o21ba_2
*I *281:S0 I *D sky130_fd_sc_hd__mux4_2
*I *284:S I *D sky130_fd_sc_hd__mux2_1
*I *282:B I *D sky130_fd_sc_hd__nand2b_2
*CAP
1 path_sel[0] 0.00178875
2 *283:A2 0
3 *281:S0 0.000472016
4 *284:S 0
5 *282:B 0
6 *15:30 0.000591048
7 *15:26 0.000352684
8 *15:9 0.0020224
9 *281:S0 *286:A2 0.000148903
10 *281:S0 *286:B1 5.89074e-05
11 *281:S0 *309:A 0
12 *15:26 *285:A1 0.000153047
13 *15:30 *285:A1 0
14 *15:30 *285:A2 4.53807e-05
15 *281:A0 *281:S0 5.83233e-05
16 *281:A3 *281:S0 3.64221e-05
17 *282:A_N *15:9 0
18 *282:A_N *15:26 0
19 *283:A1 *15:9 0
20 *283:A1 *15:26 0
21 *284:A0 *15:30 9.60337e-06
22 *284:A1 *281:S0 0.000391829
23 *284:A1 *15:30 1.02504e-05
*RES
1 path_sel[0] *15:9 12.8969 
2 *15:9 *282:B 13.8 
3 *15:9 *15:26 9.375 
4 *15:26 *15:30 7.05357 
5 *15:30 *284:S 13.8 
6 *15:30 *281:S0 15.2232 
7 *15:26 *283:A2 9.3 
*END

*D_NET *16 0.00675869
*CONN
*P path_sel[1] I
*I *281:S1 I *D sky130_fd_sc_hd__mux4_2
*I *285:B2 I *D sky130_fd_sc_hd__a221o_2
*I *283:B1_N I *D sky130_fd_sc_hd__o21ba_2
*CAP
1 path_sel[1] 0.00204906
2 *281:S1 0.000376595
3 *285:B2 0.000104039
4 *283:B1_N 0.000203482
5 *16:20 0.000745698
6 *16:7 0.00251761
7 *281:S1 *285:C1 8.56716e-05
8 *281:S1 *299:A 0
9 *281:S1 *307:A 0.000390067
10 *281:S1 *309:A 6.8646e-06
11 *281:S1 *310:A 4.75428e-05
12 *281:S1 *314:A 0
13 *281:S1 *315:A 0
14 *281:S1 *323:A 0
15 *283:B1_N *379:A 9.54798e-06
16 *285:B2 *285:C1 5.71472e-05
17 *285:B2 *313:A 5.0984e-05
18 *16:20 *285:A1 0
19 *16:20 *297:A 0
20 *16:20 *299:A 0
21 *16:20 *323:A 0
22 *16:20 *380:A 4.79842e-05
23 *16:20 *127:16 0
24 *281:A2 *281:S1 9.25014e-06
25 *281:A3 *281:S1 5.71472e-05
*RES
1 path_sel[1] *16:7 7.8656 
2 *16:7 *283:B1_N 17.0768 
3 *16:7 *16:20 4.52679 
4 *16:20 *285:B2 16.1259 
5 *16:20 *281:S1 21.8536 
*END

*D_NET *17 0.0053078
*CONN
*P path_sel[2] I
*I *277:A I *D sky130_fd_sc_hd__inv_2
*I *285:C1 I *D sky130_fd_sc_hd__a221o_2
*CAP
1 path_sel[2] 0.00213869
2 *277:A 7.40473e-05
3 *285:C1 0.000107694
4 *17:7 0.00232043
5 *277:A *307:A 0.000178074
6 *277:A *309:A 0.000173598
7 *277:A *311:A 5.58875e-06
8 *285:C1 *299:A 2.96898e-05
9 *285:C1 *307:A 4.5534e-05
10 *285:C1 *311:A 2.34337e-05
11 *285:C1 *313:A 6.81968e-05
12 *281:S1 *285:C1 8.56716e-05
13 *285:B2 *285:C1 5.71472e-05
*RES
1 path_sel[2] *17:7 8.00973 
2 *17:7 *285:C1 17.0411 
3 *17:7 *277:A 16.2018 
*END

*D_NET *18 0.00574284
*CONN
*P rst I
*I *287:A I *D sky130_fd_sc_hd__inv_2
*I *288:A I *D sky130_fd_sc_hd__inv_2
*I *278:A I *D sky130_fd_sc_hd__inv_2
*CAP
1 rst 0.000514181
2 *287:A 0.000654985
3 *288:A 0
4 *278:A 0.000337108
5 *18:9 0.000560322
6 *18:7 0.00139238
7 *278:A *290:D 0.000139637
8 *278:A *316:A0 2.84026e-05
9 *278:A *430:A 0.00032199
10 *278:A *21:12 6.26653e-05
11 *287:A *280:A1 0.000105163
12 *287:A *280:S 0.000522328
13 *287:A *290:RESET_B 3.67257e-05
14 *287:A *291:D 7.03393e-05
15 *287:A *293:A 5.52302e-05
16 *287:A *294:A 0.000392348
17 *287:A *295:A 4.48647e-05
18 *287:A *37:8 0.000282458
19 *18:7 *293:A 0
20 *18:9 *290:D 0
21 *18:9 *291:RESET_B 0.00010326
22 *18:9 *293:A 0
23 *18:9 *21:12 4.57352e-05
24 *316:S *278:A 7.27219e-05
*RES
1 rst *18:7 9.96429 
2 *18:7 *18:9 4.67857 
3 *18:9 *278:A 21.9607 
4 *18:9 *288:A 13.8 
5 *18:7 *287:A 30.9071 
*END

*D_NET *19 0.00227525
*CONN
*P se I
*I *280:S I *D sky130_fd_sc_hd__mux2_1
*CAP
1 se 0.000739827
2 *280:S 0.000739827
3 *280:S *291:D 0.000273269
4 *281:A2 *280:S 0
5 *287:A *280:S 0.000522328
*RES
1 se *280:S 29.9607 
*END

*D_NET *20 0.00150491
*CONN
*P tdi I
*I *280:A1 I *D sky130_fd_sc_hd__mux2_1
*CAP
1 tdi 0.000697272
2 *280:A1 0.000697272
3 *280:A1 *290:RESET_B 5.19842e-06
4 *281:A3 *280:A1 0
5 *287:A *280:A1 0.000105163
*RES
1 tdi *280:A1 26.2643 
*END

*D_NET *21 0.00501805
*CONN
*P tdo O
*I *291:Q O *D sky130_fd_sc_hd__dfrtp_2
*CAP
1 tdo 0.000301071
2 *291:Q 0.0016062
3 *21:12 0.00190727
4 *21:12 *289:D 0.000178385
5 *21:12 *290:CLK 3.69047e-06
6 *21:12 *290:D 5.16396e-05
7 *21:12 *291:D 1.34703e-05
8 *21:12 *305:A 0
9 *21:12 *317:A 8.36357e-05
10 *21:12 *362:A 7.8327e-05
11 *21:12 *365:A 0
12 *21:12 *374:A 7.6021e-05
13 *21:12 *376:A 0.000125241
14 *21:12 *393:A 0
15 *21:12 *394:A 4.23122e-05
16 *21:12 *397:A 0
17 *21:12 *400:A 0
18 *21:12 *403:A 0.000150625
19 *21:12 *406:A 8.98897e-05
20 *21:12 *428:A 0
21 *21:12 *437:A1 1.70507e-05
22 *21:12 *38:27 0.000184822
23 *278:A *21:12 6.26653e-05
24 *18:9 *21:12 4.57352e-05
*RES
1 *291:Q *21:12 48.3179 
2 *21:12 tdo 10.1429 
*END

*D_NET *22 0.00379072
*CONN
*I *291:D I *D sky130_fd_sc_hd__dfrtp_2
*I *280:X O *D sky130_fd_sc_hd__mux2_1
*CAP
1 *291:D 0.00157324
2 *280:X 0.00157324
3 *291:D *279:A 5.30637e-06
4 *291:D *290:CLK 0.000219753
5 *291:D *290:RESET_B 3.68192e-05
6 *291:D *291:RESET_B 2.52688e-05
7 *280:S *291:D 0.000273269
8 *287:A *291:D 7.03393e-05
9 *316:S *291:D 0
10 *21:12 *291:D 1.34703e-05
*RES
1 *280:X *291:D 49.0464 
*END

*D_NET *23 0.000493139
*CONN
*I *289:RESET_B I *D sky130_fd_sc_hd__dfrtp_2
*I *278:Y O *D sky130_fd_sc_hd__inv_2
*CAP
1 *289:RESET_B 0.000167488
2 *278:Y 0.000167488
3 *289:RESET_B *289:D 0
4 *289:RESET_B *430:A 5.50313e-05
5 *316:S *289:RESET_B 0.000103133
*RES
1 *278:Y *289:RESET_B 22.1036 
*END

*D_NET *24 0.00203305
*CONN
*I *290:RESET_B I *D sky130_fd_sc_hd__dfrtp_2
*I *287:Y O *D sky130_fd_sc_hd__inv_2
*CAP
1 *290:RESET_B 0.000832137
2 *287:Y 0.000832137
3 *290:RESET_B *279:A 0.000125392
4 *290:RESET_B *280:A0 4.79842e-05
5 *290:RESET_B *339:A 5.83304e-05
6 *290:RESET_B *355:A 5.83217e-05
7 *280:A1 *290:RESET_B 5.19842e-06
8 *281:A2 *290:RESET_B 0
9 *287:A *290:RESET_B 3.67257e-05
10 *291:D *290:RESET_B 3.68192e-05
*RES
1 *287:Y *290:RESET_B 30.6304 
*END

*D_NET *25 0.000345518
*CONN
*I *291:RESET_B I *D sky130_fd_sc_hd__dfrtp_2
*I *288:Y O *D sky130_fd_sc_hd__inv_2
*CAP
1 *291:RESET_B 8.95216e-05
2 *288:Y 8.95216e-05
3 *291:RESET_B *293:A 3.79467e-05
4 *291:D *291:RESET_B 2.52688e-05
5 *18:9 *291:RESET_B 0.00010326
*RES
1 *288:Y *291:RESET_B 20.5232 
*END

*D_NET *26 0.000496162
*CONN
*I *286:A1 I *D sky130_fd_sc_hd__o21a_2
*I *277:Y O *D sky130_fd_sc_hd__inv_2
*CAP
1 *286:A1 0.000173674
2 *277:Y 0.000173674
3 *286:A1 *286:A2 5.52238e-05
4 *286:A1 *311:A 1.58163e-05
5 *286:A1 *38:12 7.77751e-05
*RES
1 *277:Y *286:A1 22.0107 
*END

*D_NET *27 0.000323727
*CONN
*I *280:A0 I *D sky130_fd_sc_hd__mux2_1
*I *279:X O *D sky130_fd_sc_hd__xor2_2
*CAP
1 *280:A0 0.000137871
2 *279:X 0.000137871
3 *281:A2 *280:A0 0
4 *290:RESET_B *280:A0 4.79842e-05
*RES
1 *279:X *280:A0 30.1536 
*END

*D_NET *28 0.000477987
*CONN
*I *286:A2 I *D sky130_fd_sc_hd__o21a_2
*I *281:X O *D sky130_fd_sc_hd__mux4_2
*CAP
1 *286:A2 0.00013693
2 *281:X 0.00013693
3 *281:S0 *286:A2 0.000148903
4 *286:A1 *286:A2 5.52238e-05
*RES
1 *281:X *286:A2 30.4929 
*END

*D_NET *29 0.00112675
*CONN
*I *285:A1 I *D sky130_fd_sc_hd__a221o_2
*I *282:Y O *D sky130_fd_sc_hd__nand2b_2
*CAP
1 *285:A1 0.000235796
2 *282:Y 0.000235796
3 *285:A1 *285:A2 0.000349061
4 *285:A1 *285:B1 0.000153047
5 *285:A1 *379:A 0
6 *15:26 *285:A1 0.000153047
7 *15:30 *285:A1 0
8 *16:20 *285:A1 0
*RES
1 *282:Y *285:A1 34.4036 
*END

*D_NET *30 0.000743782
*CONN
*I *285:A2 I *D sky130_fd_sc_hd__a221o_2
*I *283:X O *D sky130_fd_sc_hd__o21ba_2
*CAP
1 *285:A2 0.000105102
2 *283:X 0.000105102
3 *285:A2 *286:B1 7.13226e-06
4 *284:A0 *285:A2 2.22043e-05
5 *284:A1 *285:A2 0.0001098
6 *285:A1 *285:A2 0.000349061
7 *15:30 *285:A2 4.53807e-05
*RES
1 *283:X *285:A2 32.1223 
*END

*D_NET *31 0.000437977
*CONN
*I *285:B1 I *D sky130_fd_sc_hd__a221o_2
*I *284:X O *D sky130_fd_sc_hd__mux2_1
*CAP
1 *285:B1 9.02001e-05
2 *284:X 9.02001e-05
3 *285:B1 *299:A 0.00010453
4 *285:A1 *285:B1 0.000153047
*RES
1 *284:X *285:B1 30.0821 
*END

*D_NET *32 0.000722832
*CONN
*I *286:B1 I *D sky130_fd_sc_hd__o21a_2
*I *285:X O *D sky130_fd_sc_hd__a221o_2
*CAP
1 *286:B1 0.000267684
2 *285:X 0.000267684
3 *286:B1 *299:A 4.25716e-05
4 *286:B1 *309:A 0
5 *286:B1 *311:A 0
6 *281:S0 *286:B1 5.89074e-05
7 *284:A1 *286:B1 7.88542e-05
8 *285:A2 *286:B1 7.13226e-06
*RES
1 *285:X *286:B1 32.6179 
*END

*D_NET *33 0.000857888
*CONN
*I *290:D I *D sky130_fd_sc_hd__dfrtp_2
*I *316:X O *D sky130_fd_sc_hd__mux2_1
*CAP
1 *290:D 0.000270086
2 *316:X 0.000270086
3 *290:D *289:D 0.000126439
4 *278:A *290:D 0.000139637
5 *18:9 *290:D 0
6 *21:12 *290:D 5.16396e-05
*RES
1 *316:X *290:D 32.725 
*END

*D_NET *34 0.00026507
*CONN
*I *279:A I *D sky130_fd_sc_hd__xor2_2
*I *290:Q O *D sky130_fd_sc_hd__dfrtp_2
*CAP
1 *279:A 6.71859e-05
2 *290:Q 6.71859e-05
3 *290:RESET_B *279:A 0.000125392
4 *291:D *279:A 5.30637e-06
*RES
1 *290:Q *279:A 20.3857 
*END

*D_NET *35 0.00158731
*CONN
*I *294:A I *D sky130_fd_sc_hd__clkbuf_16
*I *293:A I *D sky130_fd_sc_hd__clkbuf_16
*I *292:X O *D sky130_fd_sc_hd__clkbuf_16
*CAP
1 *294:A 0.000120988
2 *293:A 0.000379913
3 *292:X 0
4 *35:4 0.000500901
5 *294:A *295:A 9.99853e-05
6 *287:A *293:A 5.52302e-05
7 *287:A *294:A 0.000392348
8 *291:RESET_B *293:A 3.79467e-05
9 *18:7 *293:A 0
10 *18:9 *293:A 0
*RES
1 *292:X *35:4 9.3 
2 *35:4 *293:A 25.1571 
3 *35:4 *294:A 13.1214 
*END

*D_NET *36 0.00144602
*CONN
*I *289:CLK I *D sky130_fd_sc_hd__dfrtp_2
*I *291:CLK I *D sky130_fd_sc_hd__dfrtp_2
*I *293:X O *D sky130_fd_sc_hd__clkbuf_16
*CAP
1 *289:CLK 0.000484415
2 *291:CLK 0.000136761
3 *293:X 2.23854e-05
4 *36:6 0.000643562
5 *291:CLK *419:A 0
6 *291:CLK *420:A 4.1331e-06
7 *291:CLK *421:A 0.000154762
8 *5:17 *291:CLK 0
*RES
1 *293:X *36:6 9.72857 
2 *36:6 *291:CLK 21.3893 
3 *36:6 *289:CLK 17.2286 
*END

*D_NET *37 0.00214664
*CONN
*I *290:CLK I *D sky130_fd_sc_hd__dfrtp_2
*I *295:A I *D sky130_fd_sc_hd__clkbuf_4
*I *294:X O *D sky130_fd_sc_hd__clkbuf_16
*CAP
1 *290:CLK 0.000273397
2 *295:A 8.86047e-05
3 *294:X 0.000275356
4 *37:8 0.000637357
5 *287:A *295:A 4.48647e-05
6 *287:A *37:8 0.000282458
7 *291:D *290:CLK 0.000219753
8 *294:A *295:A 9.99853e-05
9 *316:S *290:CLK 0.00022117
10 *21:12 *290:CLK 3.69047e-06
*RES
1 *294:X *37:8 14.7821 
2 *37:8 *295:A 11.0679 
3 *37:8 *290:CLK 24.9786 
*END

*D_NET *38 0.00408826
*CONN
*I *437:A0 I *D sky130_fd_sc_hd__mux4_1
*I *289:D I *D sky130_fd_sc_hd__dfrtp_2
*I *296:A I *D sky130_fd_sc_hd__buf_1
*I *286:X O *D sky130_fd_sc_hd__o21a_2
*CAP
1 *437:A0 5.78449e-05
2 *289:D 0.000196656
3 *296:A 0
4 *286:X 0.000577055
5 *38:27 0.000781879
6 *38:12 0.00110443
7 *289:D *316:A0 8.50795e-06
8 *289:D *316:A1 2.56694e-05
9 *289:D *175:20 0
10 *437:A0 *437:A1 9.25014e-06
11 *38:12 *310:A 0
12 *38:12 *311:A 1.3664e-05
13 *38:27 *327:A 0.000185118
14 *38:27 *368:A 1.40415e-05
15 *38:27 *437:A1 0.000146474
16 *38:27 *175:20 0.000400247
17 *286:A1 *38:12 7.77751e-05
18 *289:RESET_B *289:D 0
19 *290:D *289:D 0.000126439
20 *21:12 *289:D 0.000178385
21 *21:12 *38:27 0.000184822
*RES
1 *286:X *38:12 25.4071 
2 *38:12 *296:A 9.3 
3 *38:12 *38:27 16.0982 
4 *38:27 *289:D 18.8625 
5 *38:27 *437:A0 14.9161 
*END

*D_NET *39 0.00193877
*CONN
*I *437:A1 I *D sky130_fd_sc_hd__mux4_1
*I *317:A I *D sky130_fd_sc_hd__buf_1
*I *308:X O *D sky130_fd_sc_hd__buf_2
*CAP
1 *437:A1 0.000334325
2 *317:A 0.000141708
3 *308:X 7.36395e-05
4 *39:8 0.000549673
5 *317:A *305:A 1.42165e-05
6 *317:A *306:A 0.000124083
7 *317:A *372:A 5.68713e-05
8 *317:A *403:A 4.46186e-06
9 *437:A1 *403:A 4.21584e-05
10 *437:A1 *406:A 0.000227736
11 *437:A1 *175:20 0
12 *39:8 *305:A 3.42509e-05
13 *437:A0 *437:A1 9.25014e-06
14 *437:S0 *437:A1 2.59355e-05
15 *437:S1 *437:A1 5.33005e-05
16 *21:12 *317:A 8.36357e-05
17 *21:12 *437:A1 1.70507e-05
18 *38:27 *437:A1 0.000146474
*RES
1 *308:X *39:8 14.7464 
2 *39:8 *317:A 17.4964 
3 *39:8 *437:A1 21.4964 
*END

*D_NET *40 0.00092166
*CONN
*I *337:A I *D sky130_fd_sc_hd__buf_1
*I *437:A2 I *D sky130_fd_sc_hd__mux4_1
*I *329:X O *D sky130_fd_sc_hd__buf_2
*CAP
1 *337:A 0.000153109
2 *437:A2 0.000137515
3 *329:X 0.000123621
4 *40:8 0.000414245
5 *337:A *345:A 4.46186e-06
6 *337:A *348:A 3.47737e-05
7 *337:A *350:A 0
8 *337:A *175:20 0
9 *437:A2 *316:A0 1.90343e-05
10 *40:8 *310:A 0
11 *281:A2 *337:A 0
12 *281:A2 *40:8 0
13 *437:S1 *437:A2 3.49005e-05
*RES
1 *329:X *40:8 15.7464 
2 *40:8 *437:A2 15.8982 
3 *40:8 *337:A 16.5857 
*END

*D_NET *41 0.00139354
*CONN
*I *437:A3 I *D sky130_fd_sc_hd__mux4_1
*I *357:A I *D sky130_fd_sc_hd__buf_1
*I *349:X O *D sky130_fd_sc_hd__buf_2
*CAP
1 *437:A3 4.00208e-05
2 *357:A 0.000117353
3 *349:X 0.000391702
4 *41:8 0.000549076
5 *357:A *175:20 7.83659e-05
6 *437:A3 *175:20 7.22594e-05
7 *41:8 *316:A0 2.52269e-05
8 *41:8 *348:A 4.37999e-05
9 *437:S1 *41:8 7.57394e-05
*RES
1 *349:X *41:8 18.8536 
2 *41:8 *357:A 15.7464 
3 *41:8 *437:A3 14.8357 
*END

*D_NET *42 0.00263055
*CONN
*I *438:A0 I *D sky130_fd_sc_hd__mux4_1
*I *377:A I *D sky130_fd_sc_hd__buf_1
*I *369:X O *D sky130_fd_sc_hd__buf_2
*CAP
1 *438:A0 0.000621369
2 *377:A 0.000154291
3 *369:X 0
4 *42:6 0.00077566
5 *377:A *365:A 0
6 *377:A *366:A 0
7 *377:A *394:A 0
8 *377:A *413:A 0.000249785
9 *438:A0 *389:A 0
10 *438:A0 *394:A 0
11 *438:A0 *400:A 6.74911e-05
12 *438:A0 *413:A 0.000257556
13 *438:A0 *417:A 4.35048e-05
14 *438:A0 *419:A 0
15 *438:A0 *433:A 0
16 *438:A0 *438:A2 7.47511e-05
17 *438:A0 *175:20 2.8833e-05
18 *437:S0 *438:A0 2.14658e-05
19 *4:13 *438:A0 0.000230482
20 *5:17 *438:A0 0.000105365
*RES
1 *369:X *42:6 13.8 
2 *42:6 *377:A 17.4964 
3 *42:6 *438:A0 27.7464 
*END

*D_NET *43 0.00186017
*CONN
*I *397:A I *D sky130_fd_sc_hd__buf_1
*I *438:A1 I *D sky130_fd_sc_hd__mux4_1
*I *389:X O *D sky130_fd_sc_hd__buf_2
*CAP
1 *397:A 0.000339994
2 *438:A1 9.6021e-05
3 *389:X 0
4 *43:4 0.000436015
5 *397:A *409:A 1.3701e-05
6 *397:A *417:A 0.00012401
7 *397:A *418:A 0.000208355
8 *397:A *428:A 6.09572e-05
9 *397:A *432:A 0.00020288
10 *397:A *433:A 0.000119786
11 *397:A *438:A2 5.59013e-05
12 *397:A *44:8 5.33005e-05
13 *397:A *175:20 8.27061e-05
14 *438:A1 *419:A 6.65398e-05
15 *438:A1 *175:20 0
16 *4:13 *438:A1 0
17 *21:12 *397:A 0
*RES
1 *389:X *43:4 9.3 
2 *43:4 *438:A1 20.2464 
3 *43:4 *397:A 27.1929 
*END

*D_NET *44 0.0012537
*CONN
*I *438:A2 I *D sky130_fd_sc_hd__mux4_1
*I *417:A I *D sky130_fd_sc_hd__buf_1
*I *409:X O *D sky130_fd_sc_hd__buf_2
*CAP
1 *438:A2 0.000164178
2 *417:A 0.000125046
3 *409:X 4.36033e-05
4 *44:8 0.000332828
5 *417:A *408:A 7.61932e-05
6 *417:A *428:A 5.33334e-05
7 *438:A2 *428:A 6.90184e-05
8 *438:A2 *438:A3 9.30603e-06
9 *397:A *417:A 0.00012401
10 *397:A *438:A2 5.59013e-05
11 *397:A *44:8 5.33005e-05
12 *437:S0 *438:A2 1.89695e-05
13 *438:A0 *417:A 4.35048e-05
14 *438:A0 *438:A2 7.47511e-05
15 *5:17 *438:A2 9.75337e-06
*RES
1 *409:X *44:8 14.3357 
2 *44:8 *417:A 17.2107 
3 *44:8 *438:A2 17.9518 
*END

*D_NET *45 0.0007437
*CONN
*I *438:A3 I *D sky130_fd_sc_hd__mux4_1
*I *429:X O *D sky130_fd_sc_hd__buf_1
*CAP
1 *438:A3 0.000294579
2 *429:X 0.000294579
3 *438:A3 *419:A 0
4 *438:A3 *426:A 1.06141e-05
5 *438:A3 *428:A 6.07528e-05
6 *438:A3 *429:A 4.21613e-05
7 *438:A2 *438:A3 9.30603e-06
8 *438:S1 *438:A3 3.17067e-05
*RES
1 *429:X *438:A3 32.2071 
*END

*D_NET *46 0.00165888
*CONN
*I *316:A0 I *D sky130_fd_sc_hd__mux2_1
*I *437:X O *D sky130_fd_sc_hd__mux4_1
*CAP
1 *316:A0 0.000637731
2 *437:X 0.000637731
3 *316:A0 *316:A1 7.70035e-05
4 *316:A0 *348:A 5.52302e-05
5 *316:A0 *430:A 5.65955e-05
6 *278:A *316:A0 2.84026e-05
7 *289:D *316:A0 8.50795e-06
8 *437:A2 *316:A0 1.90343e-05
9 *437:S1 *316:A0 0.00011342
10 *41:8 *316:A0 2.52269e-05
*RES
1 *437:X *316:A0 36.725 
*END

*D_NET *47 0.000629678
*CONN
*I *316:A1 I *D sky130_fd_sc_hd__mux2_1
*I *438:X O *D sky130_fd_sc_hd__mux4_1
*CAP
1 *316:A1 0.000209224
2 *438:X 0.000209224
3 *289:D *316:A1 2.56694e-05
4 *316:A0 *316:A1 7.70035e-05
5 *437:S1 *316:A1 0.000108558
*RES
1 *438:X *316:A1 30.8143 
*END

*D_NET *48 0.000141924
*CONN
*I *298:A I *D sky130_fd_sc_hd__buf_1
*I *297:X O *D sky130_fd_sc_hd__buf_1
*CAP
1 *298:A 6.80788e-05
2 *297:X 6.80788e-05
3 *298:A *297:A 5.7661e-06
*RES
1 *297:X *298:A 19.8679 
*END

*D_NET *49 0.000423768
*CONN
*I *297:A I *D sky130_fd_sc_hd__buf_1
*I *315:X O *D sky130_fd_sc_hd__buf_1
*CAP
1 *297:A 0.000209001
2 *315:X 0.000209001
3 *297:A *321:A 0
4 *297:A *323:A 0