*SPEF "ieee 1481-1999"
*DESIGN "rca"
*DATE "14:08:37 Saturday January 24, 2026"
*VENDOR "The OpenROAD Project"
*PROGRAM "OpenROAD"
*VERSION "v2.0-16235-gedf00dff9"
*DESIGN_FLOW "NAME_SCOPE LOCAL" "PIN_CAP NONE"
*DIVIDER /
*DELIMITER :
*BUS_DELIMITER []
*T_UNIT 1 NS
*C_UNIT 1 PF
*R_UNIT 1 OHM
*L_UNIT 1 HENRY

*NAME_MAP
*3 a[0]
*4 a[10]
*5 a[11]
*6 a[12]
*7 a[13]
*8 a[14]
*9 a[15]
*10 a[1]
*11 a[2]
*12 a[3]
*13 a[4]
*14 a[5]
*15 a[6]
*16 a[7]
*17 a[8]
*18 a[9]
*19 b[0]
*20 b[10]
*21 b[11]
*22 b[12]
*23 b[13]
*24 b[14]
*25 b[15]
*26 b[1]
*27 b[2]
*28 b[3]
*29 b[4]
*30 b[5]
*31 b[6]
*32 b[7]
*33 b[8]
*34 b[9]
*35 cin
*36 clk
*37 cout
*38 delay_sel[0]
*39 delay_sel[1]
*40 delay_sel[2]
*41 rst
*42 s[0]
*43 s[10]
*44 s[11]
*45 s[12]
*46 s[13]
*47 s[14]
*48 s[15]
*49 s[1]
*50 s[2]
*51 s[3]
*52 s[4]
*53 s[5]
*54 s[6]
*55 s[7]
*56 s[8]
*57 s[9]
*58 tdo
*59 _000_
*60 _001_
*61 _002_
*62 _003_
*63 _004_
*64 _005_
*65 _006_
*66 _007_
*67 _008_
*68 _009_
*69 _010_
*70 _011_
*71 _012_
*72 _013_
*73 _014_
*74 _015_
*75 _016_
*76 _017_
*77 _018_
*78 _019_
*79 _020_
*80 _021_
*81 _022_
*82 _023_
*83 _024_
*84 _025_
*85 _026_
*86 _027_
*87 _028_
*88 _029_
*89 _030_
*90 _031_
*91 _032_
*92 _033_
*93 _034_
*94 _035_
*95 _036_
*96 _037_
*97 _038_
*98 _039_
*99 _040_
*100 _041_
*101 _042_
*102 _043_
*103 _044_
*104 _045_
*105 _046_
*106 _047_
*107 _048_
*108 _049_
*109 _050_
*110 _051_
*111 _052_
*112 _053_
*113 _054_
*114 _055_
*115 _056_
*116 _057_
*117 _058_
*118 _059_
*119 _060_
*120 _061_
*121 _062_
*122 _063_
*123 _064_
*124 _065_
*125 _066_
*126 _067_
*127 _068_
*128 _069_
*129 _070_
*130 _071_
*131 _072_
*132 _073_
*133 _074_
*134 _075_
*135 _076_
*136 _077_
*137 _078_
*138 _079_
*139 _080_
*140 _081_
*141 _082_
*142 _083_
*143 _084_
*144 _085_
*145 _086_
*146 _087_
*147 _088_
*148 _089_
*149 _090_
*150 _091_
*151 _092_
*152 _093_
*153 _094_
*154 _095_
*155 _096_
*156 _097_
*157 _098_
*158 _099_
*159 _100_
*160 _101_
*161 _102_
*162 _103_
*163 _104_
*164 _105_
*165 _106_
*166 _107_
*167 _108_
*168 _109_
*169 _110_
*170 _111_
*171 _112_
*172 cin_q
*173 clk_regs
*174 clknet_0_clk
*175 clknet_0_clk_regs
*176 clknet_1_0__leaf_clk
*177 clknet_2_0__leaf_clk_regs
*178 clknet_2_1__leaf_clk_regs
*179 clknet_2_2__leaf_clk_regs
*180 clknet_2_3__leaf_clk_regs
*181 cout_next
*182 genblk1\[0\]\.fa_inst\.a
*183 genblk1\[0\]\.fa_inst\.b
*184 genblk1\[0\]\.fa_inst\.s
*185 genblk1\[10\]\.fa_inst\.a
*186 genblk1\[10\]\.fa_inst\.b
*187 genblk1\[10\]\.fa_inst\.s
*188 genblk1\[11\]\.fa_inst\.a
*189 genblk1\[11\]\.fa_inst\.b
*190 genblk1\[11\]\.fa_inst\.s
*191 genblk1\[12\]\.fa_inst\.a
*192 genblk1\[12\]\.fa_inst\.b
*193 genblk1\[12\]\.fa_inst\.s
*194 genblk1\[13\]\.fa_inst\.a
*195 genblk1\[13\]\.fa_inst\.b
*196 genblk1\[13\]\.fa_inst\.s
*197 genblk1\[14\]\.fa_inst\.a
*198 genblk1\[14\]\.fa_inst\.b
*199 genblk1\[14\]\.fa_inst\.s
*200 genblk1\[15\]\.fa_inst\.a
*201 genblk1\[15\]\.fa_inst\.b
*202 genblk1\[15\]\.fa_inst\.s
*203 genblk1\[1\]\.fa_inst\.a
*204 genblk1\[1\]\.fa_inst\.b
*205 genblk1\[1\]\.fa_inst\.s
*206 genblk1\[2\]\.fa_inst\.a
*207 genblk1\[2\]\.fa_inst\.b
*208 genblk1\[2\]\.fa_inst\.s
*209 genblk1\[3\]\.fa_inst\.a
*210 genblk1\[3\]\.fa_inst\.b
*211 genblk1\[3\]\.fa_inst\.s
*212 genblk1\[4\]\.fa_inst\.a
*213 genblk1\[4\]\.fa_inst\.b
*214 genblk1\[4\]\.fa_inst\.s
*215 genblk1\[5\]\.fa_inst\.a
*216 genblk1\[5\]\.fa_inst\.b
*217 genblk1\[5\]\.fa_inst\.s
*218 genblk1\[6\]\.fa_inst\.a
*219 genblk1\[6\]\.fa_inst\.b
*220 genblk1\[6\]\.fa_inst\.s
*221 genblk1\[7\]\.fa_inst\.a
*222 genblk1\[7\]\.fa_inst\.b
*223 genblk1\[7\]\.fa_inst\.s
*224 genblk1\[8\]\.fa_inst\.a
*225 genblk1\[8\]\.fa_inst\.b
*226 genblk1\[8\]\.fa_inst\.s
*227 genblk1\[9\]\.fa_inst\.a
*228 genblk1\[9\]\.fa_inst\.b
*229 genblk1\[9\]\.fa_inst\.s
*230 net1
*231 net10
*232 net11
*233 net12
*234 net13
*235 net14
*236 net15
*237 net16
*238 net17
*239 net18
*240 net19
*241 net2
*242 net20
*243 net21
*244 net22
*245 net23
*246 net24
*247 net25
*248 net26
*249 net27
*250 net28
*251 net29
*252 net3
*253 net30
*254 net31
*255 net32
*256 net33
*257 net34
*258 net35
*259 net36
*260 net37
*261 net38
*262 net39
*263 net4
*264 net40
*265 net41
*266 net42
*267 net43
*268 net44
*269 net45
*270 net46
*271 net47
*272 net48
*273 net49
*274 net5
*275 net50
*276 net51
*277 net52
*278 net53
*279 net54
*280 net55
*281 net56
*282 net57
*283 net58
*284 net59
*285 net6
*286 net60
*287 net61
*288 net62
*289 net63
*290 net64
*291 net65
*292 net66
*293 net67
*294 net68
*295 net69
*296 net7
*297 net70
*298 net71
*299 net72
*300 net73
*301 net74
*302 net75
*303 net8
*304 net9
*305 ANTENNA_1
*306 ANTENNA_2
*307 ANTENNA_3
*308 FILLER_0_100
*309 FILLER_0_103
*310 FILLER_0_106
*311 FILLER_0_109
*312 FILLER_0_113
*313 FILLER_0_116
*314 FILLER_0_119
*315 FILLER_0_12
*316 FILLER_0_122
*317 FILLER_0_125
*318 FILLER_0_128
*319 FILLER_0_131
*320 FILLER_0_134
*321 FILLER_0_137
*322 FILLER_0_141
*323 FILLER_0_144
*324 FILLER_0_147
*325 FILLER_0_15
*326 FILLER_0_150
*327 FILLER_0_153
*328 FILLER_0_156
*329 FILLER_0_159
*330 FILLER_0_162
*331 FILLER_0_165
*332 FILLER_0_169
*333 FILLER_0_172
*334 FILLER_0_18
*335 FILLER_0_21
*336 FILLER_0_24
*337 FILLER_0_27
*338 FILLER_0_29
*339 FILLER_0_32
*340 FILLER_0_331
*341 FILLER_0_334
*342 FILLER_0_337
*343 FILLER_0_340
*344 FILLER_0_343
*345 FILLER_0_346
*346 FILLER_0_349
*347 FILLER_0_35
*348 FILLER_0_352
*349 FILLER_0_354
*350 FILLER_0_357
*351 FILLER_0_360
*352 FILLER_0_363
*353 FILLER_0_366
*354 FILLER_0_369
*355 FILLER_0_372
*356 FILLER_0_375
*357 FILLER_0_378
*358 FILLER_0_38
*359 FILLER_0_382
*360 FILLER_0_385
*361 FILLER_0_388
*362 FILLER_0_391
*363 FILLER_0_394
*364 FILLER_0_397
*365 FILLER_0_400
*366 FILLER_0_403
*367 FILLER_0_406
*368 FILLER_0_41
*369 FILLER_0_44
*370 FILLER_0_47
*371 FILLER_0_50
*372 FILLER_0_53
*373 FILLER_0_57
*374 FILLER_0_60
*375 FILLER_0_63
*376 FILLER_0_66
*377 FILLER_0_69
*378 FILLER_0_72
*379 FILLER_0_75
*380 FILLER_0_78
*381 FILLER_0_81
*382 FILLER_0_85
*383 FILLER_0_88
*384 FILLER_0_9
*385 FILLER_0_91
*386 FILLER_0_94
*387 FILLER_0_97
*388 FILLER_10_100
*389 FILLER_10_103
*390 FILLER_10_106
*391 FILLER_10_109
*392 FILLER_10_112
*393 FILLER_10_115
*394 FILLER_10_118
*395 FILLER_10_12
*396 FILLER_10_121
*397 FILLER_10_124
*398 FILLER_10_127
*399 FILLER_10_130
*400 FILLER_10_133
*401 FILLER_10_136
*402 FILLER_10_139
*403 FILLER_10_141
*404 FILLER_10_144
*405 FILLER_10_147
*406 FILLER_10_15
*407 FILLER_10_150
*408 FILLER_10_153
*409 FILLER_10_156
*410 FILLER_10_159
*411 FILLER_10_162
*412 FILLER_10_165
*413 FILLER_10_168
*414 FILLER_10_171
*415 FILLER_10_174
*416 FILLER_10_177
*417 FILLER_10_18
*418 FILLER_10_21
*419 FILLER_10_24
*420 FILLER_10_27
*421 FILLER_10_29
*422 FILLER_10_32
*423 FILLER_10_331
*424 FILLER_10_334
*425 FILLER_10_337
*426 FILLER_10_340
*427 FILLER_10_343
*428 FILLER_10_346
*429 FILLER_10_349
*430 FILLER_10_35
*431 FILLER_10_352
*432 FILLER_10_354
*433 FILLER_10_357
*434 FILLER_10_360
*435 FILLER_10_363
*436 FILLER_10_366
*437 FILLER_10_369
*438 FILLER_10_372
*439 FILLER_10_375
*440 FILLER_10_378
*441 FILLER_10_38
*442 FILLER_10_381
*443 FILLER_10_384
*444 FILLER_10_387
*445 FILLER_10_390
*446 FILLER_10_393
*447 FILLER_10_396
*448 FILLER_10_399
*449 FILLER_10_402
*450 FILLER_10_405
*451 FILLER_10_41
*452 FILLER_10_44
*453 FILLER_10_53
*454 FILLER_10_56
*455 FILLER_10_59
*456 FILLER_10_6
*457 FILLER_10_64
*458 FILLER_10_74
*459 FILLER_10_77
*460 FILLER_10_80
*461 FILLER_10_83
*462 FILLER_10_85
*463 FILLER_10_88
*464 FILLER_10_9
*465 FILLER_10_91
*466 FILLER_10_94
*467 FILLER_10_97
*468 FILLER_11_101
*469 FILLER_11_104
*470 FILLER_11_107
*471 FILLER_11_110
*472 FILLER_11_113
*473 FILLER_11_116
*474 FILLER_11_119
*475 FILLER_11_12
*476 FILLER_11_122
*477 FILLER_11_125
*478 FILLER_11_128
*479 FILLER_11_131
*480 FILLER_11_134
*481 FILLER_11_137
*482 FILLER_11_140
*483 FILLER_11_143
*484 FILLER_11_146
*485 FILLER_11_149
*486 FILLER_11_15
*487 FILLER_11_152
*488 FILLER_11_155
*489 FILLER_11_158
*490 FILLER_11_161
*491 FILLER_11_164
*492 FILLER_11_167
*493 FILLER_11_169
*494 FILLER_11_172
*495 FILLER_11_175
*496 FILLER_11_178
*497 FILLER_11_18
*498 FILLER_11_21
*499 FILLER_11_24
*500 FILLER_11_27
*501 FILLER_11_3
*502 FILLER_11_30
*503 FILLER_11_328
*504 FILLER_11_33
*505 FILLER_11_331
*506 FILLER_11_334
*507 FILLER_11_337
*508 FILLER_11_340
*509 FILLER_11_343
*510 FILLER_11_346
*511 FILLER_11_349
*512 FILLER_11_352
*513 FILLER_11_355
*514 FILLER_11_358
*515 FILLER_11_36
*516 FILLER_11_361
*517 FILLER_11_364
*518 FILLER_11_367
*519 FILLER_11_370
*520 FILLER_11_373
*521 FILLER_11_376
*522 FILLER_11_379
*523 FILLER_11_382
*524 FILLER_11_385
*525 FILLER_11_388
*526 FILLER_11_39
*527 FILLER_11_391
*528 FILLER_11_394
*529 FILLER_11_397
*530 FILLER_11_400
*531 FILLER_11_403
*532 FILLER_11_406
*533 FILLER_11_42
*534 FILLER_11_45
*535 FILLER_11_48
*536 FILLER_11_51
*537 FILLER_11_54
*538 FILLER_11_57
*539 FILLER_11_6
*540 FILLER_11_68
*541 FILLER_11_71
*542 FILLER_11_74
*543 FILLER_11_77
*544 FILLER_11_80
*545 FILLER_11_83
*546 FILLER_11_86
*547 FILLER_11_89
*548 FILLER_11_9
*549 FILLER_11_92
*550 FILLER_11_95
*551 FILLER_11_98
*552 FILLER_12_100
*553 FILLER_12_106
*554 FILLER_12_109
*555 FILLER_12_112
*556 FILLER_12_115
*557 FILLER_12_118
*558 FILLER_12_121
*559 FILLER_12_124
*560 FILLER_12_127
*561 FILLER_12_130
*562 FILLER_12_133
*563 FILLER_12_136
*564 FILLER_12_139
*565 FILLER_12_141
*566 FILLER_12_144
*567 FILLER_12_147
*568 FILLER_12_150
*569 FILLER_12_153
*570 FILLER_12_156
*571 FILLER_12_159
*572 FILLER_12_162
*573 FILLER_12_165
*574 FILLER_12_168
*575 FILLER_12_171
*576 FILLER_12_174
*577 FILLER_12_177
*578 FILLER_12_29
*579 FILLER_12_32
*580 FILLER_12_331
*581 FILLER_12_334
*582 FILLER_12_337
*583 FILLER_12_340
*584 FILLER_12_343
*585 FILLER_12_346
*586 FILLER_12_349
*587 FILLER_12_35
*588 FILLER_12_352
*589 FILLER_12_354
*590 FILLER_12_357
*591 FILLER_12_360
*592 FILLER_12_363
*593 FILLER_12_366
*594 FILLER_12_369
*595 FILLER_12_372
*596 FILLER_12_375
*597 FILLER_12_378
*598 FILLER_12_38
*599 FILLER_12_381
*600 FILLER_12_384
*601 FILLER_12_387
*602 FILLER_12_390
*603 FILLER_12_393
*604 FILLER_12_396
*605 FILLER_12_399
*606 FILLER_12_402
*607 FILLER_12_405
*608 FILLER_12_41
*609 FILLER_12_44
*610 FILLER_12_47
*611 FILLER_12_50
*612 FILLER_12_53
*613 FILLER_12_56
*614 FILLER_12_59
*615 FILLER_12_6
*616 FILLER_12_62
*617 FILLER_12_65
*618 FILLER_12_68
*619 FILLER_12_71
*620 FILLER_12_74
*621 FILLER_12_77
*622 FILLER_12_80
*623 FILLER_12_83
*624 FILLER_12_85
*625 FILLER_12_88
*626 FILLER_12_91
*627 FILLER_12_94
*628 FILLER_12_97
*629 FILLER_13_113
*630 FILLER_13_116
*631 FILLER_13_119
*632 FILLER_13_12
*633 FILLER_13_122
*634 FILLER_13_125
*635 FILLER_13_128
*636 FILLER_13_131
*637 FILLER_13_134
*638 FILLER_13_137
*639 FILLER_13_140
*640 FILLER_13_143
*641 FILLER_13_146
*642 FILLER_13_149
*643 FILLER_13_152
*644 FILLER_13_155
*645 FILLER_13_158
*646 FILLER_13_161
*647 FILLER_13_164
*648 FILLER_13_167
*649 FILLER_13_169
*650 FILLER_13_172
*651 FILLER_13_175
*652 FILLER_13_178
*653 FILLER_13_3
*654 FILLER_13_328
*655 FILLER_13_331
*656 FILLER_13_334
*657 FILLER_13_337
*658 FILLER_13_34
*659 FILLER_13_340
*660 FILLER_13_343
*661 FILLER_13_346
*662 FILLER_13_349
*663 FILLER_13_352
*664 FILLER_13_355
*665 FILLER_13_358
*666 FILLER_13_361
*667 FILLER_13_364
*668 FILLER_13_367
*669 FILLER_13_37
*670 FILLER_13_370
*671 FILLER_13_373
*672 FILLER_13_376
*673 FILLER_13_379
*674 FILLER_13_382
*675 FILLER_13_385
*676 FILLER_13_388
*677 FILLER_13_391
*678 FILLER_13_394
*679 FILLER_13_397
*680 FILLER_13_40
*681 FILLER_13_400
*682 FILLER_13_43
*683 FILLER_13_46
*684 FILLER_13_49
*685 FILLER_13_52
*686 FILLER_13_55
*687 FILLER_13_57
*688 FILLER_13_6
*689 FILLER_13_60
*690 FILLER_13_63
*691 FILLER_13_72
*692 FILLER_13_75
*693 FILLER_13_78
*694 FILLER_13_81
*695 FILLER_13_84
*696 FILLER_13_87
*697 FILLER_13_9
*698 FILLER_13_90
*699 FILLER_14_100
*700 FILLER_14_103
*701 FILLER_14_106
*702 FILLER_14_109
*703 FILLER_14_112
*704 FILLER_14_115
*705 FILLER_14_118
*706 FILLER_14_12
*707 FILLER_14_121
*708 FILLER_14_124
*709 FILLER_14_127
*710 FILLER_14_130
*711 FILLER_14_133
*712 FILLER_14_136
*713 FILLER_14_139
*714 FILLER_14_141
*715 FILLER_14_144
*716 FILLER_14_147
*717 FILLER_14_15
*718 FILLER_14_150
*719 FILLER_14_153
*720 FILLER_14_156
*721 FILLER_14_159
*722 FILLER_14_162
*723 FILLER_14_165
*724 FILLER_14_168
*725 FILLER_14_171
*726 FILLER_14_174
*727 FILLER_14_177
*728 FILLER_14_18
*729 FILLER_14_21
*730 FILLER_14_25
*731 FILLER_14_29
*732 FILLER_14_32
*733 FILLER_14_328
*734 FILLER_14_331
*735 FILLER_14_334
*736 FILLER_14_337
*737 FILLER_14_340
*738 FILLER_14_343
*739 FILLER_14_346
*740 FILLER_14_349
*741 FILLER_14_35
*742 FILLER_14_352
*743 FILLER_14_354
*744 FILLER_14_357
*745 FILLER_14_360
*746 FILLER_14_363
*747 FILLER_14_366
*748 FILLER_14_369
*749 FILLER_14_372
*750 FILLER_14_375
*751 FILLER_14_378
*752 FILLER_14_38
*753 FILLER_14_381
*754 FILLER_14_384
*755 FILLER_14_387
*756 FILLER_14_390
*757 FILLER_14_393
*758 FILLER_14_396
*759 FILLER_14_399
*760 FILLER_14_402
*761 FILLER_14_405
*762 FILLER_14_41
*763 FILLER_14_44
*764 FILLER_14_54
*765 FILLER_14_57
*766 FILLER_14_6
*767 FILLER_14_71
*768 FILLER_14_74
*769 FILLER_14_77
*770 FILLER_14_80
*771 FILLER_14_83
*772 FILLER_14_85
*773 FILLER_14_88
*774 FILLER_14_9
*775 FILLER_14_91
*776 FILLER_14_94
*777 FILLER_14_97
*778 FILLER_15_102
*779 FILLER_15_105
*780 FILLER_15_108
*781 FILLER_15_111
*782 FILLER_15_113
*783 FILLER_15_116
*784 FILLER_15_119
*785 FILLER_15_12
*786 FILLER_15_122
*787 FILLER_15_125
*788 FILLER_15_128
*789 FILLER_15_131
*790 FILLER_15_134
*791 FILLER_15_137
*792 FILLER_15_140
*793 FILLER_15_143
*794 FILLER_15_146
*795 FILLER_15_149
*796 FILLER_15_152
*797 FILLER_15_155
*798 FILLER_15_158
*799 FILLER_15_161
*800 FILLER_15_164
*801 FILLER_15_167
*802 FILLER_15_169
*803 FILLER_15_172
*804 FILLER_15_175
*805 FILLER_15_178
*806 FILLER_15_3
*807 FILLER_15_331
*808 FILLER_15_334
*809 FILLER_15_337
*810 FILLER_15_340
*811 FILLER_15_343
*812 FILLER_15_346
*813 FILLER_15_349
*814 FILLER_15_352
*815 FILLER_15_355
*816 FILLER_15_358
*817 FILLER_15_361
*818 FILLER_15_364
*819 FILLER_15_367
*820 FILLER_15_37
*821 FILLER_15_370
*822 FILLER_15_373
*823 FILLER_15_376
*824 FILLER_15_379
*825 FILLER_15_382
*826 FILLER_15_385
*827 FILLER_15_388
*828 FILLER_15_391
*829 FILLER_15_394
*830 FILLER_15_397
*831 FILLER_15_40
*832 FILLER_15_400
*833 FILLER_15_403
*834 FILLER_15_406
*835 FILLER_15_43
*836 FILLER_15_46
*837 FILLER_15_49
*838 FILLER_15_52
*839 FILLER_15_55
*840 FILLER_15_57
*841 FILLER_15_6
*842 FILLER_15_60
*843 FILLER_15_63
*844 FILLER_15_66
*845 FILLER_15_69
*846 FILLER_15_72
*847 FILLER_15_75
*848 FILLER_15_78
*849 FILLER_15_81
*850 FILLER_15_84
*851 FILLER_15_87
*852 FILLER_15_9
*853 FILLER_15_90
*854 FILLER_15_93
*855 FILLER_15_96
*856 FILLER_15_99
*857 FILLER_16_113
*858 FILLER_16_116
*859 FILLER_16_119
*860 FILLER_16_12
*861 FILLER_16_122
*862 FILLER_16_125
*863 FILLER_16_128
*864 FILLER_16_131
*865 FILLER_16_134
*866 FILLER_16_137
*867 FILLER_16_141
*868 FILLER_16_144
*869 FILLER_16_147
*870 FILLER_16_15
*871 FILLER_16_150
*872 FILLER_16_153
*873 FILLER_16_156
*874 FILLER_16_159
*875 FILLER_16_162
*876 FILLER_16_165
*877 FILLER_16_168
*878 FILLER_16_171
*879 FILLER_16_174
*880 FILLER_16_177
*881 FILLER_16_18
*882 FILLER_16_21
*883 FILLER_16_24
*884 FILLER_16_328
*885 FILLER_16_331
*886 FILLER_16_334
*887 FILLER_16_337
*888 FILLER_16_340
*889 FILLER_16_343
*890 FILLER_16_346
*891 FILLER_16_349
*892 FILLER_16_35
*893 FILLER_16_352
*894 FILLER_16_354
*895 FILLER_16_357
*896 FILLER_16_360
*897 FILLER_16_363
*898 FILLER_16_366
*899 FILLER_16_369
*900 FILLER_16_372
*901 FILLER_16_375
*902 FILLER_16_378
*903 FILLER_16_38
*904 FILLER_16_381
*905 FILLER_16_384
*906 FILLER_16_387
*907 FILLER_16_390
*908 FILLER_16_393
*909 FILLER_16_396
*910 FILLER_16_399
*911 FILLER_16_402
*912 FILLER_16_405
*913 FILLER_16_41
*914 FILLER_16_44
*915 FILLER_16_47
*916 FILLER_16_50
*917 FILLER_16_53
*918 FILLER_16_56
*919 FILLER_16_59
*920 FILLER_16_6
*921 FILLER_16_62
*922 FILLER_16_65
*923 FILLER_16_68
*924 FILLER_16_71
*925 FILLER_16_74
*926 FILLER_16_77
*927 FILLER_16_80
*928 FILLER_16_83
*929 FILLER_16_85
*930 FILLER_16_88
*931 FILLER_16_9
*932 FILLER_17_100
*933 FILLER_17_106
*934 FILLER_17_109
*935 FILLER_17_113
*936 FILLER_17_116
*937 FILLER_17_119
*938 FILLER_17_12
*939 FILLER_17_122
*940 FILLER_17_125
*941 FILLER_17_128
*942 FILLER_17_131
*943 FILLER_17_134
*944 FILLER_17_137
*945 FILLER_17_140
*946 FILLER_17_143
*947 FILLER_17_146
*948 FILLER_17_149
*949 FILLER_17_152
*950 FILLER_17_155
*951 FILLER_17_158
*952 FILLER_17_161
*953 FILLER_17_164
*954 FILLER_17_167
*955 FILLER_17_169
*956 FILLER_17_172
*957 FILLER_17_175
*958 FILLER_17_178
*959 FILLER_17_3
*960 FILLER_17_328
*961 FILLER_17_331
*962 FILLER_17_334
*963 FILLER_17_337
*964 FILLER_17_340
*965 FILLER_17_343
*966 FILLER_17_346
*967 FILLER_17_349
*968 FILLER_17_35
*969 FILLER_17_352
*970 FILLER_17_355
*971 FILLER_17_358
*972 FILLER_17_361
*973 FILLER_17_364
*974 FILLER_17_367
*975 FILLER_17_370
*976 FILLER_17_373
*977 FILLER_17_376
*978 FILLER_17_379
*979 FILLER_17_38
*980 FILLER_17_382
*981 FILLER_17_385
*982 FILLER_17_388
*983 FILLER_17_391
*984 FILLER_17_394
*985 FILLER_17_397
*986 FILLER_17_400
*987 FILLER_17_41
*988 FILLER_17_44
*989 FILLER_17_47
*990 FILLER_17_50
*991 FILLER_17_53
*992 FILLER_17_57
*993 FILLER_17_6
*994 FILLER_17_60
*995 FILLER_17_64
*996 FILLER_17_73
*997 FILLER_17_76
*998 FILLER_17_79
*999 FILLER_17_82
*1000 FILLER_17_85
*1001 FILLER_17_88
*1002 FILLER_17_9
*1003 FILLER_17_91
*1004 FILLER_17_94
*1005 FILLER_17_97
*1006 FILLER_18_100
*1007 FILLER_18_103
*1008 FILLER_18_106
*1009 FILLER_18_109
*1010 FILLER_18_112
*1011 FILLER_18_115
*1012 FILLER_18_118
*1013 FILLER_18_12
*1014 FILLER_18_121
*1015 FILLER_18_124
*1016 FILLER_18_127
*1017 FILLER_18_130
*1018 FILLER_18_133
*1019 FILLER_18_136
*1020 FILLER_18_139
*1021 FILLER_18_141
*1022 FILLER_18_144
*1023 FILLER_18_147
*1024 FILLER_18_15
*1025 FILLER_18_150
*1026 FILLER_18_153
*1027 FILLER_18_156
*1028 FILLER_18_159
*1029 FILLER_18_162
*1030 FILLER_18_165
*1031 FILLER_18_168
*1032 FILLER_18_171
*1033 FILLER_18_174
*1034 FILLER_18_177
*1035 FILLER_18_18
*1036 FILLER_18_21
*1037 FILLER_18_24
*1038 FILLER_18_27
*1039 FILLER_18_32
*1040 FILLER_18_328
*1041 FILLER_18_331
*1042 FILLER_18_334
*1043 FILLER_18_337
*1044 FILLER_18_340
*1045 FILLER_18_343
*1046 FILLER_18_346
*1047 FILLER_18_349
*1048 FILLER_18_35
*1049 FILLER_18_352
*1050 FILLER_18_354
*1051 FILLER_18_357
*1052 FILLER_18_360
*1053 FILLER_18_363
*1054 FILLER_18_366
*1055 FILLER_18_369
*1056 FILLER_18_372
*1057 FILLER_18_375
*1058 FILLER_18_378
*1059 FILLER_18_38
*1060 FILLER_18_381
*1061 FILLER_18_384
*1062 FILLER_18_387
*1063 FILLER_18_390
*1064 FILLER_18_393
*1065 FILLER_18_396
*1066 FILLER_18_399
*1067 FILLER_18_402
*1068 FILLER_18_405
*1069 FILLER_18_41
*1070 FILLER_18_44
*1071 FILLER_18_47
*1072 FILLER_18_57
*1073 FILLER_18_6
*1074 FILLER_18_68
*1075 FILLER_18_71
*1076 FILLER_18_74
*1077 FILLER_18_77
*1078 FILLER_18_80
*1079 FILLER_18_83
*1080 FILLER_18_85
*1081 FILLER_18_88
*1082 FILLER_18_9
*1083 FILLER_18_91
*1084 FILLER_18_94
*1085 FILLER_18_97
*1086 FILLER_19_113
*1087 FILLER_19_116
*1088 FILLER_19_119
*1089 FILLER_19_12
*1090 FILLER_19_122
*1091 FILLER_19_125
*1092 FILLER_19_128
*1093 FILLER_19_131
*1094 FILLER_19_134
*1095 FILLER_19_137
*1096 FILLER_19_140
*1097 FILLER_19_143
*1098 FILLER_19_146
*1099 FILLER_19_149
*1100 FILLER_19_15
*1101 FILLER_19_152
*1102 FILLER_19_155
*1103 FILLER_19_158
*1104 FILLER_19_161
*1105 FILLER_19_164
*1106 FILLER_19_167
*1107 FILLER_19_169
*1108 FILLER_19_172
*1109 FILLER_19_175
*1110 FILLER_19_178
*1111 FILLER_19_3
*1112 FILLER_19_328
*1113 FILLER_19_331
*1114 FILLER_19_334
*1115 FILLER_19_337
*1116 FILLER_19_340
*1117 FILLER_19_343
*1118 FILLER_19_346
*1119 FILLER_19_349
*1120 FILLER_19_352
*1121 FILLER_19_355
*1122 FILLER_19_358
*1123 FILLER_19_361
*1124 FILLER_19_364
*1125 FILLER_19_367
*1126 FILLER_19_37
*1127 FILLER_19_370
*1128 FILLER_19_373
*1129 FILLER_19_376
*1130 FILLER_19_379
*1131 FILLER_19_382
*1132 FILLER_19_385
*1133 FILLER_19_388
*1134 FILLER_19_391
*1135 FILLER_19_394
*1136 FILLER_19_397
*1137 FILLER_19_40
*1138 FILLER_19_400
*1139 FILLER_19_403
*1140 FILLER_19_406
*1141 FILLER_19_43
*1142 FILLER_19_46
*1143 FILLER_19_49
*1144 FILLER_19_52
*1145 FILLER_19_55
*1146 FILLER_19_57
*1147 FILLER_19_6
*1148 FILLER_19_60
*1149 FILLER_19_63
*1150 FILLER_19_66
*1151 FILLER_19_69
*1152 FILLER_19_72
*1153 FILLER_19_75
*1154 FILLER_19_78
*1155 FILLER_19_81
*1156 FILLER_19_84
*1157 FILLER_19_87
*1158 FILLER_19_9
*1159 FILLER_19_90
*1160 FILLER_1_102
*1161 FILLER_1_105
*1162 FILLER_1_108
*1163 FILLER_1_111
*1164 FILLER_1_113
*1165 FILLER_1_116
*1166 FILLER_1_119
*1167 FILLER_1_12
*1168 FILLER_1_122
*1169 FILLER_1_125
*1170 FILLER_1_128
*1171 FILLER_1_131
*1172 FILLER_1_134
*1173 FILLER_1_137
*1174 FILLER_1_140
*1175 FILLER_1_143
*1176 FILLER_1_146
*1177 FILLER_1_149
*1178 FILLER_1_15
*1179 FILLER_1_152
*1180 FILLER_1_155
*1181 FILLER_1_158
*1182 FILLER_1_161
*1183 FILLER_1_164
*1184 FILLER_1_167
*1185 FILLER_1_169
*1186 FILLER_1_172
*1187 FILLER_1_175
*1188 FILLER_1_178
*1189 FILLER_1_18
*1190 FILLER_1_21
*1191 FILLER_1_24
*1192 FILLER_1_27
*1193 FILLER_1_3
*1194 FILLER_1_30
*1195 FILLER_1_328
*1196 FILLER_1_33
*1197 FILLER_1_331
*1198 FILLER_1_334
*1199 FILLER_1_337
*1200 FILLER_1_340
*1201 FILLER_1_343
*1202 FILLER_1_346
*1203 FILLER_1_349
*1204 FILLER_1_352
*1205 FILLER_1_355
*1206 FILLER_1_358
*1207 FILLER_1_36
*1208 FILLER_1_361
*1209 FILLER_1_364
*1210 FILLER_1_367
*1211 FILLER_1_370
*1212 FILLER_1_373
*1213 FILLER_1_376
*1214 FILLER_1_379
*1215 FILLER_1_382
*1216 FILLER_1_385
*1217 FILLER_1_388
*1218 FILLER_1_39
*1219 FILLER_1_391
*1220 FILLER_1_394
*1221 FILLER_1_397
*1222 FILLER_1_400
*1223 FILLER_1_42
*1224 FILLER_1_45
*1225 FILLER_1_48
*1226 FILLER_1_51
*1227 FILLER_1_54
*1228 FILLER_1_57
*1229 FILLER_1_6
*1230 FILLER_1_60
*1231 FILLER_1_63
*1232 FILLER_1_66
*1233 FILLER_1_69
*1234 FILLER_1_72
*1235 FILLER_1_75
*1236 FILLER_1_78
*1237 FILLER_1_81
*1238 FILLER_1_84
*1239 FILLER_1_87
*1240 FILLER_1_9
*1241 FILLER_1_90
*1242 FILLER_1_93
*1243 FILLER_1_96
*1244 FILLER_1_99
*1245 FILLER_20_12
*1246 FILLER_20_123
*1247 FILLER_20_126
*1248 FILLER_20_129
*1249 FILLER_20_132
*1250 FILLER_20_135
*1251 FILLER_20_138
*1252 FILLER_20_141
*1253 FILLER_20_144
*1254 FILLER_20_147
*1255 FILLER_20_15
*1256 FILLER_20_150
*1257 FILLER_20_153
*1258 FILLER_20_156
*1259 FILLER_20_159
*1260 FILLER_20_162
*1261 FILLER_20_165
*1262 FILLER_20_168
*1263 FILLER_20_171
*1264 FILLER_20_174
*1265 FILLER_20_177
*1266 FILLER_20_18
*1267 FILLER_20_21
*1268 FILLER_20_24
*1269 FILLER_20_27
*1270 FILLER_20_32
*1271 FILLER_20_328
*1272 FILLER_20_331
*1273 FILLER_20_334
*1274 FILLER_20_337
*1275 FILLER_20_340
*1276 FILLER_20_343
*1277 FILLER_20_346
*1278 FILLER_20_349
*1279 FILLER_20_35
*1280 FILLER_20_352
*1281 FILLER_20_354
*1282 FILLER_20_357
*1283 FILLER_20_360
*1284 FILLER_20_363
*1285 FILLER_20_366
*1286 FILLER_20_369
*1287 FILLER_20_372
*1288 FILLER_20_375
*1289 FILLER_20_378
*1290 FILLER_20_38
*1291 FILLER_20_381
*1292 FILLER_20_384
*1293 FILLER_20_387
*1294 FILLER_20_390
*1295 FILLER_20_393
*1296 FILLER_20_396
*1297 FILLER_20_399
*1298 FILLER_20_402
*1299 FILLER_20_405
*1300 FILLER_20_41
*1301 FILLER_20_44
*1302 FILLER_20_47
*1303 FILLER_20_50
*1304 FILLER_20_53
*1305 FILLER_20_56
*1306 FILLER_20_59
*1307 FILLER_20_6
*1308 FILLER_20_62
*1309 FILLER_20_65
*1310 FILLER_20_73
*1311 FILLER_20_76
*1312 FILLER_20_79
*1313 FILLER_20_82
*1314 FILLER_20_85
*1315 FILLER_20_88
*1316 FILLER_20_9
*1317 FILLER_20_91
*1318 FILLER_20_94
*1319 FILLER_21_111
*1320 FILLER_21_113
*1321 FILLER_21_116
*1322 FILLER_21_119
*1323 FILLER_21_12
*1324 FILLER_21_122
*1325 FILLER_21_125
*1326 FILLER_21_128
*1327 FILLER_21_131
*1328 FILLER_21_134
*1329 FILLER_21_137
*1330 FILLER_21_141
*1331 FILLER_21_144
*1332 FILLER_21_147
*1333 FILLER_21_15
*1334 FILLER_21_150
*1335 FILLER_21_153
*1336 FILLER_21_156
*1337 FILLER_21_159
*1338 FILLER_21_162
*1339 FILLER_21_165
*1340 FILLER_21_169
*1341 FILLER_21_172
*1342 FILLER_21_175
*1343 FILLER_21_178
*1344 FILLER_21_18
*1345 FILLER_21_181
*1346 FILLER_21_184
*1347 FILLER_21_187
*1348 FILLER_21_190
*1349 FILLER_21_193
*1350 FILLER_21_197
*1351 FILLER_21_200
*1352 FILLER_21_203
*1353 FILLER_21_206
*1354 FILLER_21_209
*1355 FILLER_21_21
*1356 FILLER_21_212
*1357 FILLER_21_215
*1358 FILLER_21_218
*1359 FILLER_21_221
*1360 FILLER_21_24
*1361 FILLER_21_245
*1362 FILLER_21_248
*1363 FILLER_21_251
*1364 FILLER_21_253
*1365 FILLER_21_256
*1366 FILLER_21_259
*1367 FILLER_21_262
*1368 FILLER_21_265
*1369 FILLER_21_269
*1370 FILLER_21_27
*1371 FILLER_21_272
*1372 FILLER_21_275
*1373 FILLER_21_278
*1374 FILLER_21_281
*1375 FILLER_21_284
*1376 FILLER_21_287
*1377 FILLER_21_29
*1378 FILLER_21_293
*1379 FILLER_21_296
*1380 FILLER_21_299
*1381 FILLER_21_3
*1382 FILLER_21_302
*1383 FILLER_21_305
*1384 FILLER_21_309
*1385 FILLER_21_312
*1386 FILLER_21_315
*1387 FILLER_21_318
*1388 FILLER_21_32
*1389 FILLER_21_321
*1390 FILLER_21_324
*1391 FILLER_21_327
*1392 FILLER_21_330
*1393 FILLER_21_333
*1394 FILLER_21_337
*1395 FILLER_21_340
*1396 FILLER_21_343
*1397 FILLER_21_346
*1398 FILLER_21_349
*1399 FILLER_21_35
*1400 FILLER_21_352
*1401 FILLER_21_355
*1402 FILLER_21_358
*1403 FILLER_21_361
*1404 FILLER_21_365
*1405 FILLER_21_368
*1406 FILLER_21_371
*1407 FILLER_21_374
*1408 FILLER_21_377
*1409 FILLER_21_38
*1410 FILLER_21_380
*1411 FILLER_21_383
*1412 FILLER_21_386
*1413 FILLER_21_389
*1414 FILLER_21_393
*1415 FILLER_21_396
*1416 FILLER_21_399
*1417 FILLER_21_402
*1418 FILLER_21_41
*1419 FILLER_21_44
*1420 FILLER_21_47
*1421 FILLER_21_54
*1422 FILLER_21_6
*1423 FILLER_21_60
*1424 FILLER_21_65
*1425 FILLER_21_68
*1426 FILLER_21_71
*1427 FILLER_21_74
*1428 FILLER_21_77
*1429 FILLER_21_80
*1430 FILLER_21_83
*1431 FILLER_21_85
*1432 FILLER_21_88
*1433 FILLER_21_9
*1434 FILLER_22_100
*1435 FILLER_22_103
*1436 FILLER_22_106
*1437 FILLER_22_109
*1438 FILLER_22_112
*1439 FILLER_22_115
*1440 FILLER_22_118
*1441 FILLER_22_12
*1442 FILLER_22_121
*1443 FILLER_22_124
*1444 FILLER_22_127
*1445 FILLER_22_130
*1446 FILLER_22_133
*1447 FILLER_22_136
*1448 FILLER_22_139
*1449 FILLER_22_141
*1450 FILLER_22_144
*1451 FILLER_22_147
*1452 FILLER_22_15
*1453 FILLER_22_150
*1454 FILLER_22_153
*1455 FILLER_22_156
*1456 FILLER_22_159
*1457 FILLER_22_162
*1458 FILLER_22_165
*1459 FILLER_22_168
*1460 FILLER_22_171
*1461 FILLER_22_174
*1462 FILLER_22_177
*1463 FILLER_22_18
*1464 FILLER_22_180
*1465 FILLER_22_183
*1466 FILLER_22_186
*1467 FILLER_22_189
*1468 FILLER_22_192
*1469 FILLER_22_195
*1470 FILLER_22_197
*1471 FILLER_22_200
*1472 FILLER_22_203
*1473 FILLER_22_206
*1474 FILLER_22_209
*1475 FILLER_22_21
*1476 FILLER_22_212
*1477 FILLER_22_215
*1478 FILLER_22_238
*1479 FILLER_22_24
*1480 FILLER_22_241
*1481 FILLER_22_244
*1482 FILLER_22_247
*1483 FILLER_22_250
*1484 FILLER_22_253
*1485 FILLER_22_256
*1486 FILLER_22_259
*1487 FILLER_22_262
*1488 FILLER_22_265
*1489 FILLER_22_268
*1490 FILLER_22_27
*1491 FILLER_22_271
*1492 FILLER_22_274
*1493 FILLER_22_277
*1494 FILLER_22_280
*1495 FILLER_22_283
*1496 FILLER_22_286
*1497 FILLER_22_289
*1498 FILLER_22_292
*1499 FILLER_22_295
*1500 FILLER_22_298
*1501 FILLER_22_301
*1502 FILLER_22_304
*1503 FILLER_22_307
*1504 FILLER_22_309
*1505 FILLER_22_312
*1506 FILLER_22_315
*1507 FILLER_22_318
*1508 FILLER_22_32
*1509 FILLER_22_321
*1510 FILLER_22_324
*1511 FILLER_22_327
*1512 FILLER_22_330
*1513 FILLER_22_333
*1514 FILLER_22_336
*1515 FILLER_22_339
*1516 FILLER_22_342
*1517 FILLER_22_345
*1518 FILLER_22_348
*1519 FILLER_22_35
*1520 FILLER_22_351
*1521 FILLER_22_354
*1522 FILLER_22_357
*1523 FILLER_22_360
*1524 FILLER_22_363
*1525 FILLER_22_365
*1526 FILLER_22_368
*1527 FILLER_22_371
*1528 FILLER_22_374
*1529 FILLER_22_377
*1530 FILLER_22_38
*1531 FILLER_22_380
*1532 FILLER_22_383
*1533 FILLER_22_386
*1534 FILLER_22_389
*1535 FILLER_22_392
*1536 FILLER_22_395
*1537 FILLER_22_398
*1538 FILLER_22_401
*1539 FILLER_22_404
*1540 FILLER_22_41
*1541 FILLER_22_44
*1542 FILLER_22_47
*1543 FILLER_22_50
*1544 FILLER_22_53
*1545 FILLER_22_56
*1546 FILLER_22_59
*1547 FILLER_22_6
*1548 FILLER_22_69
*1549 FILLER_22_72
*1550 FILLER_22_75
*1551 FILLER_22_78
*1552 FILLER_22_81
*1553 FILLER_22_85
*1554 FILLER_22_88
*1555 FILLER_22_9
*1556 FILLER_22_91
*1557 FILLER_22_94
*1558 FILLER_22_97
*1559 FILLER_23_102
*1560 FILLER_23_105
*1561 FILLER_23_108
*1562 FILLER_23_111
*1563 FILLER_23_113
*1564 FILLER_23_116
*1565 FILLER_23_119
*1566 FILLER_23_12
*1567 FILLER_23_122
*1568 FILLER_23_125
*1569 FILLER_23_128
*1570 FILLER_23_131
*1571 FILLER_23_134
*1572 FILLER_23_137
*1573 FILLER_23_140
*1574 FILLER_23_143
*1575 FILLER_23_146
*1576 FILLER_23_149
*1577 FILLER_23_15
*1578 FILLER_23_152
*1579 FILLER_23_155
*1580 FILLER_23_158
*1581 FILLER_23_161
*1582 FILLER_23_164
*1583 FILLER_23_167
*1584 FILLER_23_169
*1585 FILLER_23_172
*1586 FILLER_23_175
*1587 FILLER_23_178
*1588 FILLER_23_181
*1589 FILLER_23_184
*1590 FILLER_23_187
*1591 FILLER_23_190
*1592 FILLER_23_193
*1593 FILLER_23_196
*1594 FILLER_23_199
*1595 FILLER_23_202
*1596 FILLER_23_205
*1597 FILLER_23_208
*1598 FILLER_23_211
*1599 FILLER_23_214
*1600 FILLER_23_217
*1601 FILLER_23_220
*1602 FILLER_23_223
*1603 FILLER_23_225
*1604 FILLER_23_228
*1605 FILLER_23_231
*1606 FILLER_23_234
*1607 FILLER_23_237
*1608 FILLER_23_240
*1609 FILLER_23_243
*1610 FILLER_23_246
*1611 FILLER_23_249
*1612 FILLER_23_252
*1613 FILLER_23_255
*1614 FILLER_23_258
*1615 FILLER_23_261
*1616 FILLER_23_264
*1617 FILLER_23_267
*1618 FILLER_23_270
*1619 FILLER_23_273
*1620 FILLER_23_276
*1621 FILLER_23_279
*1622 FILLER_23_281
*1623 FILLER_23_284
*1624 FILLER_23_287
*1625 FILLER_23_290
*1626 FILLER_23_293
*1627 FILLER_23_296
*1628 FILLER_23_299
*1629 FILLER_23_3
*1630 FILLER_23_302
*1631 FILLER_23_305
*1632 FILLER_23_308
*1633 FILLER_23_311
*1634 FILLER_23_314
*1635 FILLER_23_317
*1636 FILLER_23_320
*1637 FILLER_23_323
*1638 FILLER_23_326
*1639 FILLER_23_329
*1640 FILLER_23_332
*1641 FILLER_23_335