*SPEF "ieee 1481-1999"
*DESIGN "pmu"
*DATE "16:09:24 Saturday January 24, 2026"
*VENDOR "The OpenROAD Project"
*PROGRAM "OpenROAD"
*VERSION "v2.0-16235-gedf00dff9"
*DESIGN_FLOW "NAME_SCOPE LOCAL" "PIN_CAP NONE"
*DIVIDER /
*DELIMITER :
*BUS_DELIMITER []
*T_UNIT 1 NS
*C_UNIT 1 PF
*R_UNIT 1 OHM
*L_UNIT 1 HENRY

*NAME_MAP
*3 clk
*4 delay_sel[0]
*5 delay_sel[1]
*6 delay_sel[2]
*7 path[0]
*8 path[1]
*9 path[2]
*10 path[3]
*11 path[4]
*12 path[5]
*13 path[6]
*14 path[7]
*15 path_sel[0]
*16 path_sel[1]
*17 path_sel[2]
*18 rst
*19 se
*20 tdi
*21 tdo
*22 _00_
*23 _01_
*24 _02_
*25 _03_
*26 _04_
*27 _05_
*28 _06_
*29 _07_
*30 _08_
*31 _09_
*32 _10_
*33 capture_d
*34 capture_q
*35 clknet_0_clk
*36 clknet_1_0__leaf_clk
*37 clknet_1_1__leaf_clk
*38 dc_inst\.in
*39 dc_inst\.net1
*40 dc_inst\.net2
*41 dc_inst\.net3
*42 dc_inst\.net4
*43 dc_inst\.net5
*44 dc_inst\.net6
*45 dc_inst\.net7
*46 dc_inst\.net8
*47 dc_inst\.net9
*48 dc_inst\.x1\.net1
*49 dc_inst\.x1\.net10
*50 dc_inst\.x1\.net11
*51 dc_inst\.x1\.net12
*52 dc_inst\.x1\.net13
*53 dc_inst\.x1\.net14
*54 dc_inst\.x1\.net15
*55 dc_inst\.x1\.net16
*56 dc_inst\.x1\.net17
*57 dc_inst\.x1\.net18
*58 dc_inst\.x1\.net19
*59 dc_inst\.x1\.net2
*60 dc_inst\.x1\.net3
*61 dc_inst\.x1\.net4
*62 dc_inst\.x1\.net5
*63 dc_inst\.x1\.net6
*64 dc_inst\.x1\.net7
*65 dc_inst\.x1\.net8
*66 dc_inst\.x1\.net9
*67 dc_inst\.x2\.net1
*68 dc_inst\.x2\.net10
*69 dc_inst\.x2\.net11
*70 dc_inst\.x2\.net12
*71 dc_inst\.x2\.net13
*72 dc_inst\.x2\.net14
*73 dc_inst\.x2\.net15
*74 dc_inst\.x2\.net16
*75 dc_inst\.x2\.net17
*76 dc_inst\.x2\.net18
*77 dc_inst\.x2\.net19
*78 dc_inst\.x2\.net2
*79 dc_inst\.x2\.net3
*80 dc_inst\.x2\.net4
*81 dc_inst\.x2\.net5
*82 dc_inst\.x2\.net6
*83 dc_inst\.x2\.net7
*84 dc_inst\.x2\.net8
*85 dc_inst\.x2\.net9
*86 dc_inst\.x3\.net1
*87 dc_inst\.x3\.net10
*88 dc_inst\.x3\.net11
*89 dc_inst\.x3\.net12
*90 dc_inst\.x3\.net13
*91 dc_inst\.x3\.net14
*92 dc_inst\.x3\.net15
*93 dc_inst\.x3\.net16
*94 dc_inst\.x3\.net17
*95 dc_inst\.x3\.net18
*96 dc_inst\.x3\.net19
*97 dc_inst\.x3\.net2
*98 dc_inst\.x3\.net3
*99 dc_inst\.x3\.net4
*100 dc_inst\.x3\.net5
*101 dc_inst\.x3\.net6
*102 dc_inst\.x3\.net7
*103 dc_inst\.x3\.net8
*104 dc_inst\.x3\.net9
*105 dc_inst\.x4\.net1
*106 dc_inst\.x4\.net10
*107 dc_inst\.x4\.net11
*108 dc_inst\.x4\.net12
*109 dc_inst\.x4\.net13
*110 dc_inst\.x4\.net14
*111 dc_inst\.x4\.net15
*112 dc_inst\.x4\.net16
*113 dc_inst\.x4\.net17
*114 dc_inst\.x4\.net18
*115 dc_inst\.x4\.net19
*116 dc_inst\.x4\.net2
*117 dc_inst\.x4\.net3
*118 dc_inst\.x4\.net4
*119 dc_inst\.x4\.net5
*120 dc_inst\.x4\.net6
*121 dc_inst\.x4\.net7
*122 dc_inst\.x4\.net8
*123 dc_inst\.x4\.net9
*124 dc_inst\.x5\.net1
*125 dc_inst\.x5\.net10
*126 dc_inst\.x5\.net11
*127 dc_inst\.x5\.net12
*128 dc_inst\.x5\.net13
*129 dc_inst\.x5\.net14
*130 dc_inst\.x5\.net15
*131 dc_inst\.x5\.net16
*132 dc_inst\.x5\.net17
*133 dc_inst\.x5\.net18
*134 dc_inst\.x5\.net19
*135 dc_inst\.x5\.net2
*136 dc_inst\.x5\.net3
*137 dc_inst\.x5\.net4
*138 dc_inst\.x5\.net5
*139 dc_inst\.x5\.net6
*140 dc_inst\.x5\.net7
*141 dc_inst\.x5\.net8
*142 dc_inst\.x5\.net9
*143 dc_inst\.x6\.net1
*144 dc_inst\.x6\.net10
*145 dc_inst\.x6\.net11
*146 dc_inst\.x6\.net12
*147 dc_inst\.x6\.net13
*148 dc_inst\.x6\.net14
*149 dc_inst\.x6\.net15
*150 dc_inst\.x6\.net16
*151 dc_inst\.x6\.net17
*152 dc_inst\.x6\.net18
*153 dc_inst\.x6\.net19
*154 dc_inst\.x6\.net2
*155 dc_inst\.x6\.net3
*156 dc_inst\.x6\.net4
*157 dc_inst\.x6\.net5
*158 dc_inst\.x6\.net6
*159 dc_inst\.x6\.net7
*160 dc_inst\.x6\.net8
*161 dc_inst\.x6\.net9
*162 dc_inst\.x7\.net1
*163 dc_inst\.x7\.net10
*164 dc_inst\.x7\.net11
*165 dc_inst\.x7\.net12
*166 dc_inst\.x7\.net13
*167 dc_inst\.x7\.net14
*168 dc_inst\.x7\.net15
*169 dc_inst\.x7\.net16
*170 dc_inst\.x7\.net17
*171 dc_inst\.x7\.net18
*172 dc_inst\.x7\.net19
*173 dc_inst\.x7\.net2
*174 dc_inst\.x7\.net3
*175 dc_inst\.x7\.net4
*176 dc_inst\.x7\.net5
*177 dc_inst\.x7\.net6
*178 dc_inst\.x7\.net7
*179 dc_inst\.x7\.net8
*180 dc_inst\.x7\.net9
*181 shadow_q
*182 FILLER_0_12
*183 FILLER_0_53
*184 FILLER_0_57
*185 FILLER_0_60
*186 FILLER_0_69
*187 FILLER_10_3
*188 FILLER_10_69
*189 FILLER_11_29
*190 FILLER_11_3
*191 FILLER_11_69
*192 FILLER_1_11
*193 FILLER_1_3
*194 FILLER_1_34
*195 FILLER_1_57
*196 FILLER_1_60
*197 FILLER_2_13
*198 FILLER_2_19
*199 FILLER_2_24
*200 FILLER_2_3
*201 FILLER_2_44
*202 FILLER_2_54
*203 FILLER_2_8
*204 FILLER_3_34
*205 FILLER_3_39
*206 FILLER_3_43
*207 FILLER_3_48
*208 FILLER_3_57
*209 FILLER_3_68
*210 FILLER_3_9
*211 FILLER_4_18
*212 FILLER_4_29
*213 FILLER_4_3
*214 FILLER_4_37
*215 FILLER_4_69
*216 FILLER_4_7
*217 FILLER_5_14
*218 FILLER_5_3
*219 FILLER_5_31
*220 FILLER_5_43
*221 FILLER_5_48
*222 FILLER_5_57
*223 FILLER_5_68
*224 FILLER_6_27
*225 FILLER_6_3
*226 FILLER_6_32
*227 FILLER_6_35
*228 FILLER_6_48
*229 FILLER_7_3
*230 FILLER_7_55
*231 FILLER_7_69
*232 FILLER_7_7
*233 FILLER_8_3
*234 FILLER_8_44
*235 FILLER_8_69
*236 FILLER_9_23
*237 FILLER_9_48
*238 FILLER_9_69
*239 PHY_EDGE_ROW_0_Left_12
*240 PHY_EDGE_ROW_0_Right_0
*241 PHY_EDGE_ROW_10_Left_22
*242 PHY_EDGE_ROW_10_Right_10
*243 PHY_EDGE_ROW_11_Left_23
*244 PHY_EDGE_ROW_11_Right_11
*245 PHY_EDGE_ROW_1_Left_13
*246 PHY_EDGE_ROW_1_Right_1
*247 PHY_EDGE_ROW_2_Left_14
*248 PHY_EDGE_ROW_2_Right_2
*249 PHY_EDGE_ROW_3_Left_15
*250 PHY_EDGE_ROW_3_Right_3
*251 PHY_EDGE_ROW_4_Left_16
*252 PHY_EDGE_ROW_4_Right_4
*253 PHY_EDGE_ROW_5_Left_17
*254 PHY_EDGE_ROW_5_Right_5
*255 PHY_EDGE_ROW_6_Left_18
*256 PHY_EDGE_ROW_6_Right_6
*257 PHY_EDGE_ROW_7_Left_19
*258 PHY_EDGE_ROW_7_Right_7
*259 PHY_EDGE_ROW_8_Left_20
*260 PHY_EDGE_ROW_8_Right_8
*261 PHY_EDGE_ROW_9_Left_21
*262 PHY_EDGE_ROW_9_Right_9
*263 TAP_TAPCELL_ROW_0_24
*264 TAP_TAPCELL_ROW_0_25
*265 TAP_TAPCELL_ROW_10_35
*266 TAP_TAPCELL_ROW_11_36
*267 TAP_TAPCELL_ROW_11_37
*268 TAP_TAPCELL_ROW_1_26
*269 TAP_TAPCELL_ROW_2_27
*270 TAP_TAPCELL_ROW_3_28
*271 TAP_TAPCELL_ROW_4_29
*272 TAP_TAPCELL_ROW_5_30
*273 TAP_TAPCELL_ROW_6_31
*274 TAP_TAPCELL_ROW_7_32
*275 TAP_TAPCELL_ROW_8_33
*276 TAP_TAPCELL_ROW_9_34
*277 _11_
*278 _12_
*279 _13_
*280 _14_
*281 _15_
*282 _16_
*283 _17_
*284 _18_
*285 _19_
*286 _20_
*287 _21_
*288 _22_
*289 _23_
*290 _24_
*291 _25_
*292 clkbuf_0_clk
*293 clkbuf_1_0__f_clk
*294 clkbuf_1_1__f_clk
*295 clkload0
*296 dc_inst\.x1\.x1
*297 dc_inst\.x1\.x10
*298 dc_inst\.x1\.x11
*299 dc_inst\.x1\.x12
*300 dc_inst\.x1\.x13
*301 dc_inst\.x1\.x14
*302 dc_inst\.x1\.x15
*303 dc_inst\.x1\.x16
*304 dc_inst\.x1\.x17
*305 dc_inst\.x1\.x18
*306 dc_inst\.x1\.x19
*307 dc_inst\.x1\.x2
*308 dc_inst\.x1\.x20
*309 dc_inst\.x1\.x3
*310 dc_inst\.x1\.x4
*311 dc_inst\.x1\.x5
*312 dc_inst\.x1\.x6
*313 dc_inst\.x1\.x7
*314 dc_inst\.x1\.x8
*315 dc_inst\.x1\.x9
*316 dc_inst\.x10
*317 dc_inst\.x2\.x1
*318 dc_inst\.x2\.x10
*319 dc_inst\.x2\.x11
*320 dc_inst\.x2\.x12
*321 dc_inst\.x2\.x13
*322 dc_inst\.x2\.x14
*323 dc_inst\.x2\.x15
*324 dc_inst\.x2\.x16
*325 dc_inst\.x2\.x17
*326 dc_inst\.x2\.x18
*327 dc_inst\.x2\.x19
*328 dc_inst\.x2\.x2
*329 dc_inst\.x2\.x20
*330 dc_inst\.x2\.x3
*331 dc_inst\.x2\.x4
*332 dc_inst\.x2\.x5
*333 dc_inst\.x2\.x6
*334 dc_inst\.x2\.x7
*335 dc_inst\.x2\.x8
*336 dc_inst\.x2\.x9
*337 dc_inst\.x3\.x1
*338 dc_inst\.x3\.x10
*339 dc_inst\.x3\.x11
*340 dc_inst\.x3\.x12
*341 dc_inst\.x3\.x13
*342 dc_inst\.x3\.x14
*343 dc_inst\.x3\.x15
*344 dc_inst\.x3\.x16
*345 dc_inst\.x3\.x17
*346 dc_inst\.x3\.x18
*347 dc_inst\.x3\.x19
*348 dc_inst\.x3\.x2
*349 dc_inst\.x3\.x20
*350 dc_inst\.x3\.x3
*351 dc_inst\.x3\.x4
*352 dc_inst\.x3\.x5
*353 dc_inst\.x3\.x6
*354 dc_inst\.x3\.x7
*355 dc_inst\.x3\.x8
*356 dc_inst\.x3\.x9
*357 dc_inst\.x4\.x1
*358 dc_inst\.x4\.x10
*359 dc_inst\.x4\.x11
*360 dc_inst\.x4\.x12
*361 dc_inst\.x4\.x13
*362 dc_inst\.x4\.x14
*363 dc_inst\.x4\.x15
*364 dc_inst\.x4\.x16
*365 dc_inst\.x4\.x17
*366 dc_inst\.x4\.x18
*367 dc_inst\.x4\.x19
*368 dc_inst\.x4\.x2
*369 dc_inst\.x4\.x20
*370 dc_inst\.x4\.x3
*371 dc_inst\.x4\.x4
*372 dc_inst\.x4\.x5
*373 dc_inst\.x4\.x6
*374 dc_inst\.x4\.x7
*375 dc_inst\.x4\.x8
*376 dc_inst\.x4\.x9
*377 dc_inst\.x5\.x1
*378 dc_inst\.x5\.x10
*379 dc_inst\.x5\.x11
*380 dc_inst\.x5\.x12
*381 dc_inst\.x5\.x13
*382 dc_inst\.x5\.x14
*383 dc_inst\.x5\.x15
*384 dc_inst\.x5\.x16
*385 dc_inst\.x5\.x17
*386 dc_inst\.x5\.x18
*387 dc_inst\.x5\.x19
*388 dc_inst\.x5\.x2
*389 dc_inst\.x5\.x20
*390 dc_inst\.x5\.x3
*391 dc_inst\.x5\.x4
*392 dc_inst\.x5\.x5
*393 dc_inst\.x5\.x6
*394 dc_inst\.x5\.x7
*395 dc_inst\.x5\.x8
*396 dc_inst\.x5\.x9
*397 dc_inst\.x6\.x1
*398 dc_inst\.x6\.x10
*399 dc_inst\.x6\.x11
*400 dc_inst\.x6\.x12
*401 dc_inst\.x6\.x13
*402 dc_inst\.x6\.x14
*403 dc_inst\.x6\.x15
*404 dc_inst\.x6\.x16
*405 dc_inst\.x6\.x17
*406 dc_inst\.x6\.x18
*407 dc_inst\.x6\.x19
*408 dc_inst\.x6\.x2
*409 dc_inst\.x6\.x20
*410 dc_inst\.x6\.x3
*411 dc_inst\.x6\.x4
*412 dc_inst\.x6\.x5
*413 dc_inst\.x6\.x6
*414 dc_inst\.x6\.x7
*415 dc_inst\.x6\.x8
*416 dc_inst\.x6\.x9
*417 dc_inst\.x7\.x1
*418 dc_inst\.x7\.x10
*419 dc_inst\.x7\.x11
*420 dc_inst\.x7\.x12
*421 dc_inst\.x7\.x13
*422 dc_inst\.x7\.x14
*423 dc_inst\.x7\.x15
*424 dc_inst\.x7\.x16
*425 dc_inst\.x7\.x17
*426 dc_inst\.x7\.x18
*427 dc_inst\.x7\.x19
*428 dc_inst\.x7\.x2
*429 dc_inst\.x7\.x20
*430 dc_inst\.x7\.x3
*431 dc_inst\.x7\.x4
*432 dc_inst\.x7\.x5
*433 dc_inst\.x7\.x6
*434 dc_inst\.x7\.x7
*435 dc_inst\.x7\.x8
*436 dc_inst\.x7\.x9
*437 dc_inst\.x8
*438 dc_inst\.x9

*PORTS
clk I
delay_sel[0] I
delay_sel[1] I
delay_sel[2] I
path[0] I
path[1] I
path[2] I
path[3] I
path[4] I
path[5] I
path[6] I
path[7] I
path_sel[0] I
path_sel[1] I
path_sel[2] I
rst I
se I
tdi I
tdo O

*D_NET *3 0.00125755
*CONN
*P clk I
*I *292:A I *D sky130_fd_sc_hd__clkbuf_16
*CAP
1 clk 0.000596595
2 *292:A 0.000596595
3 *292:A *419:A 4.99619e-05
4 *292:A *420:A 1.4399e-05
*RES
1 clk *292:A 13.635 
*END

*D_NET *4 0.00288344
*CONN
*P delay_sel[0] I
*I *438:S0 I *D sky130_fd_sc_hd__mux4_1
*I *437:S0 I *D sky130_fd_sc_hd__mux4_1
*CAP
1 delay_sel[0] 0.00048287
2 *438:S0 0
3 *437:S0 0.000662891
4 *4:13 0.00114576
5 *437:S0 *437:A1 2.49909e-05
6 *437:S0 *437:S1 0.000170719
7 *437:S0 *438:A0 2.05056e-05
8 *437:S0 *438:A2 1.79431e-05
9 *437:S0 *5:17 1.89639e-05
10 *4:13 *419:A 0
11 *4:13 *438:A0 0.000201508
12 *4:13 *438:A1 0
13 *4:13 *5:17 0.000137286
*RES
1 delay_sel[0] *4:13 8.6335 
2 *4:13 *437:S0 9.67 
3 *4:13 *438:S0 1.6 
*END

*D_NET *5 0.0039169
*CONN
*P delay_sel[1] I
*I *437:S1 I *D sky130_fd_sc_hd__mux4_1
*I *438:S1 I *D sky130_fd_sc_hd__mux4_1
*CAP
1 delay_sel[1] 0.00104101
2 *437:S1 0.000431753
3 *438:S1 1.32983e-05
4 *5:17 0.00148606
5 *437:S1 *316:A0 0.000108738
6 *437:S1 *316:A1 0.000103445
7 *437:S1 *437:A1 4.66108e-05
8 *437:S1 *437:A2 3.01732e-05
9 *437:S1 *41:8 7.08554e-05
10 *438:S1 *428:A 5.39961e-05
11 *438:S1 *438:A3 3.05295e-05
12 *5:17 *291:CLK 0
13 *5:17 *420:A 1.59477e-05
14 *5:17 *421:A 0
15 *5:17 *422:A 4.91189e-05
16 *5:17 *438:A0 9.87488e-05
17 *5:17 *438:A2 9.64638e-06
18 *437:S0 *437:S1 0.000170719
19 *437:S0 *5:17 1.89639e-05
20 *4:13 *5:17 0.000137286
*RES
1 delay_sel[1] *5:17 16.8102 
2 *5:17 *438:S1 6.215 
3 *5:17 *437:S1 10.135 
*END

*D_NET *6 0.00352917
*CONN
*P delay_sel[2] I
*I *316:S I *D sky130_fd_sc_hd__mux2_1
*CAP
1 delay_sel[2] 0.00157448
2 *316:S 0.00157448
3 *316:S *278:A 6.70629e-05
4 *316:S *289:RESET_B 9.94138e-05
5 *316:S *290:CLK 0.000204463
6 *316:S *291:D 0
7 *316:S *430:A 9.27255e-06
*RES
1 delay_sel[2] *316:S 18.3894 
*END

*D_NET *7 0.00138054
*CONN
*P path[0] I
*I *283:A1 I *D sky130_fd_sc_hd__o21ba_2
*CAP
1 path[0] 0.000647913
2 *283:A1 0.000647913
3 *283:A1 *282:A_N 8.47169e-05
4 *283:A1 *15:9 0
5 *283:A1 *15:26 0
*RES
1 path[0] *283:A1 13.4585 
*END

*D_NET *8 0.000669843
*CONN
*P path[1] I
*I *282:A_N I *D sky130_fd_sc_hd__nand2b_2
*CAP
1 path[1] 0.000292563
2 *282:A_N 0.000292563
3 *282:A_N *284:A0 0
4 *282:A_N *15:9 0
5 *282:A_N *15:26 0
6 *283:A1 *282:A_N 8.47169e-05
*RES
1 path[1] *282:A_N 6.43503 
*END

*D_NET *9 0.000584121
*CONN
*P path[2] I
*I *284:A0 I *D sky130_fd_sc_hd__mux2_1
*CAP
1 path[2] 0.000276985
2 *284:A0 0.000276985
3 *284:A0 *284:A1 0
4 *284:A0 *285:A2 2.05641e-05
5 *284:A0 *15:30 9.58678e-06
6 *282:A_N *284:A0 0
*RES
1 path[2] *284:A0 5.02157 
*END

*D_NET *10 0.00131943
*CONN
*P path[3] I
*I *284:A1 I *D sky130_fd_sc_hd__mux2_1
*CAP
1 path[3] 0.000381939
2 *284:A1 0.000381939
3 *284:A1 *281:A0 0
4 *284:A1 *281:S0 0.00036248
5 *284:A1 *285:A2 0.000105841
6 *284:A1 *286:B1 7.77257e-05
7 *284:A1 *299:A 0
8 *284:A1 *15:30 9.50342e-06
9 *284:A0 *284:A1 0
*RES
1 path[3] *284:A1 9.0433 
*END

*D_NET *11 0.000771895
*CONN
*P path[4] I
*I *281:A0 I *D sky130_fd_sc_hd__mux4_2
*CAP
1 path[4] 0.000358949
2 *281:A0 0.000358949
3 *281:A0 *281:A1 0
4 *281:A0 *281:S0 5.39961e-05
5 *281:A0 *309:A 0
6 *284:A1 *281:A0 0
*RES
1 path[4] *281:A0 6.4933 
*END

*D_NET *12 0.0019752
*CONN
*P path[5] I
*I *281:A1 I *D sky130_fd_sc_hd__mux4_2
*CAP
1 path[5] 0.000777033
2 *281:A1 0.000777033
3 *281:A1 *281:A2 0
4 *281:A1 *281:A3 5.32509e-05
5 *281:A1 *309:A 0.000116629
6 *281:A1 *342:A 0
7 *281:A1 *343:A 0.000251253
8 *281:A1 *349:A 0
9 *281:A1 *352:A 0
10 *281:A0 *281:A1 0
*RES
1 path[5] *281:A1 12.4921 
*END

*D_NET *13 0.00280917
*CONN
*P path[6] I
*I *281:A2 I *D sky130_fd_sc_hd__mux4_2
*CAP
1 path[6] 0.00123657
2 *281:A2 0.00123657
3 *281:A2 *279:B 4.40812e-05
4 *281:A2 *280:A0 0
5 *281:A2 *280:S 0
6 *281:A2 *281:A3 0
7 *281:A2 *281:S1 8.53113e-06
8 *281:A2 *290:RESET_B 0
9 *281:A2 *307:A 4.99619e-05
10 *281:A2 *309:A 0
11 *281:A2 *310:A 9.23971e-05
12 *281:A2 *337:A 0
13 *281:A2 *339:A 0
14 *281:A2 *345:A 0
15 *281:A2 *349:A 6.02202e-05
16 *281:A2 *350:A 0
17 *281:A2 *352:A 8.08439e-05
18 *281:A2 *355:A 0
19 *281:A2 *40:8 0
20 *281:A1 *281:A2 0
*RES
1 path[6] *281:A2 17.7842 
*END

*D_NET *14 0.00339053
*CONN
*P path[7] I
*I *281:A3 I *D sky130_fd_sc_hd__mux4_2
*CAP
1 path[7] 0.00162652
2 *281:A3 0.00162652
3 *281:A3 *280:A1 0
4 *281:A3 *281:S0 3.42773e-05
5 *281:A3 *281:S1 4.99619e-05
6 *281:A3 *340:A 0
7 *281:A3 *341:A 0
8 *281:A1 *281:A3 5.32509e-05
9 *281:A2 *281:A3 0
*RES
1 path[7] *281:A3 28.862 
*END

*D_NET *15 0.00569986
*CONN
*P path_sel[0] I
*I *283:A2 I *D sky130_fd_sc_hd__o21ba_2
*I *281:S0 I *D sky130_fd_sc_hd__mux4_2
*I *284:S I *D sky130_fd_sc_hd__mux2_1
*I *282:B I *D sky130_fd_sc_hd__nand2b_2
*CAP
1 path_sel[0] 0.00168265
2 *283:A2 0
3 *281:S0 0.000418156
4 *284:S 0
5 *282:B 0
6 *15:30 0.00052492
7 *15:26 0.000321313
8 *15:9 0.0018972
9 *281:S0 *286:A2 0.000137571
10 *281:S0 *286:B1 6.01819e-05
11 *281:S0 *309:A 0
12 *15:26 *285:A1 0.000141599
13 *15:30 *285:A1 0
14 *15:30 *285:A2 4.64291e-05
15 *281:A0 *281:S0 5.39961e-05
16 *281:A3 *281:S0 3.42773e-05
17 *282:A_N *15:9 0
18 *282:A_N *15:26 0
19 *283:A1 *15:9 0
20 *283:A1 *15:26 0
21 *284:A0 *15:30 9.58678e-06
22 *284:A1 *281:S0 0.00036248
23 *284:A1 *15:30 9.50342e-06
*RES
1 path_sel[0] *15:9 8.31277 
2 *15:9 *282:B 3.6 
3 *15:9 *15:26 6.095 
4 *15:26 *15:30 4.145 
5 *15:30 *284:S 3.6 
6 *15:30 *281:S0 11.0075 
7 *15:26 *283:A2 1.6 
*END

*D_NET *16 0.00619764
*CONN
*P path_sel[1] I
*I *281:S1 I *D sky130_fd_sc_hd__mux4_2
*I *285:B2 I *D sky130_fd_sc_hd__a221o_2
*I *283:B1_N I *D sky130_fd_sc_hd__o21ba_2
*CAP
1 path_sel[1] 0.00189551
2 *281:S1 0.000327233
3 *285:B2 9.41577e-05
4 *283:B1_N 0.000188018
5 *16:20 0.000659425
6 *16:7 0.00232156
7 *281:S1 *285:C1 8.34426e-05
8 *281:S1 *299:A 0
9 *281:S1 *307:A 0.000357699
10 *281:S1 *309:A 7.21296e-06
11 *281:S1 *310:A 4.91927e-05
12 *281:S1 *314:A 0
13 *281:S1 *315:A 0
14 *281:S1 *323:A 0
15 *283:B1_N *379:A 8.7152e-06
16 *285:B2 *285:C1 4.99619e-05
17 *285:B2 *313:A 4.79093e-05
18 *16:20 *285:A1 0
19 *16:20 *297:A 0
20 *16:20 *299:A 0
21 *16:20 *323:A 0
22 *16:20 *380:A 4.91189e-05
23 *16:20 *381:A 0
24 *281:A2 *281:S1 8.53113e-06
25 *281:A3 *281:S1 4.99619e-05
*RES
1 path_sel[1] *16:7 4.1024 
2 *16:7 *283:B1_N 6.3525 
3 *16:7 *16:20 3.8025 
4 *16:20 *285:B2 5.55375 
5 *16:20 *281:S1 10.365 
*END

*D_NET *17 0.00488047
*CONN
*P path_sel[2] I
*I *277:A I *D sky130_fd_sc_hd__inv_2
*I *285:C1 I *D sky130_fd_sc_hd__a221o_2
*CAP
1 path_sel[2] 0.00197583
2 *277:A 6.15974e-05
3 *285:C1 9.02375e-05
4 *17:7 0.00212766
5 *277:A *307:A 0.000164507
6 *277:A *309:A 0.000160278
7 *277:A *311:A 5.53549e-06
8 *285:C1 *299:A 3.05894e-05
9 *285:C1 *307:A 4.18147e-05
10 *285:C1 *311:A 2.28346e-05
11 *285:C1 *313:A 6.61836e-05
12 *281:S1 *285:C1 8.34426e-05
13 *285:B2 *285:C1 4.99619e-05
*RES
1 path_sel[2] *17:7 4.21893 
2 *17:7 *285:C1 6.3225 
3 *17:7 *277:A 5.6175 
*END

*D_NET *18 0.0052256
*CONN
*P rst I
*I *287:A I *D sky130_fd_sc_hd__inv_2
*I *288:A I *D sky130_fd_sc_hd__inv_2
*I *278:A I *D sky130_fd_sc_hd__inv_2
*CAP
1 rst 0.000479911
2 *287:A 0.000597983
3 *288:A 0
4 *278:A 0.000301287
5 *18:9 0.000502133
6 *18:7 0.00127874
7 *278:A tdo 6.44307e-05
8 *278:A *290:D 0.00012182
9 *278:A *316:A0 2.68464e-05
10 *278:A *430:A 0.000287408
11 *287:A *280:A1 9.91257e-05
12 *287:A *280:S 0.00045877
13 *287:A *290:RESET_B 3.45679e-05
14 *287:A *291:D 6.65725e-05
15 *287:A *293:A 4.82919e-05
16 *287:A *294:A 0.000341055
17 *287:A *295:A 4.21518e-05
18 *287:A *37:8 0.000264979
19 *18:7 *293:A 0
20 *18:9 tdo 4.70256e-05
21 *18:9 *290:D 0
22 *18:9 *291:RESET_B 9.54399e-05
23 *18:9 *293:A 0
24 *316:S *278:A 6.70629e-05
*RES
1 rst *18:7 8.37 
2 *18:7 *18:9 3.93 
3 *18:9 *278:A 10.455 
4 *18:9 *288:A 3.6 
5 *18:7 *287:A 17.97 
*END

*D_NET *19 0.00206935
*CONN
*P se I
*I *280:S I *D sky130_fd_sc_hd__mux2_1
*CAP
1 se 0.000685831
2 *280:S 0.000685831
3 *280:S *291:D 0.000238919
4 *281:A2 *280:S 0
5 *287:A *280:S 0.00045877
*RES
1 se *280:S 17.175 
*END

*D_NET *20 0.00138914
*CONN
*P tdi I
*I *280:A1 I *D sky130_fd_sc_hd__mux2_1
*CAP
1 tdi 0.000642474
2 *280:A1 0.000642474
3 *280:A1 *290:RESET_B 5.062e-06
4 *281:A3 *280:A1 0
5 *287:A *280:A1 9.91257e-05
*RES
1 tdi *280:A1 14.07 
*END

*D_NET *21 0.00454503
*CONN
*P tdo O
*I *291:Q O *D sky130_fd_sc_hd__dfrtp_2
*CAP
1 tdo 0.00169029
2 *291:Q 0.00169029
3 tdo *289:D 0.000173595
4 tdo *290:CLK 3.64998e-06
5 tdo *290:D 5.30057e-05
6 tdo *291:D 1.32843e-05
7 tdo *305:A 0
8 tdo *317:A 8.61746e-05
9 tdo *362:A 7.63125e-05
10 tdo *365:A 0
11 tdo *374:A 7.44375e-05
12 tdo *376:A 0.000115253
13 tdo *393:A 0
14 tdo *394:A 4.34278e-05
15 tdo *397:A 0
16 tdo *400:A 0
17 tdo *403:A 0.000139245
18 tdo *406:A 8.68724e-05
19 tdo *428:A 0
20 tdo *437:A1 1.69212e-05
21 tdo *38:27 0.000170809
22 *278:A tdo 6.44307e-05
23 *18:9 tdo 4.70256e-05
*RES
1 *291:Q tdo 37.555 
*END

*D_NET *22 0.00338035
*CONN
*I *291:D I *D sky130_fd_sc_hd__dfrtp_2
*I *280:X O *D sky130_fd_sc_hd__mux2_1
*CAP
1 *291:D 0.00139412
2 *280:X 0.00139412
3 *291:D *279:A 4.9253e-06
4 *291:D *290:CLK 0.000205584
5 *291:D *290:RESET_B 3.71411e-05
6 *291:D *291:RESET_B 2.56899e-05
7 tdo *291:D 1.32843e-05
8 *280:S *291:D 0.000238919
9 *287:A *291:D 6.65725e-05
10 *316:S *291:D 0
*RES
1 *280:X *291:D 25.215 
*END

*D_NET *23 0.00045446
*CONN
*I *289:RESET_B I *D sky130_fd_sc_hd__dfrtp_2
*I *278:Y O *D sky130_fd_sc_hd__inv_2
*CAP
1 *289:RESET_B 0.000151839
2 *278:Y 0.000151839
3 *289:RESET_B *289:D 0
4 *289:RESET_B *430:A 5.13692e-05
5 *316:S *289:RESET_B 9.94138e-05
*RES
1 *278:Y *289:RESET_B 8.795 
*END

*D_NET *24 0.00182643
*CONN
*I *290:RESET_B I *D sky130_fd_sc_hd__dfrtp_2
*I *287:Y O *D sky130_fd_sc_hd__inv_2
*CAP
1 *290:RESET_B 0.000739529
2 *287:Y 0.000739529
3 *290:RESET_B *279:A 0.000111295
4 *290:RESET_B *280:A0 4.91189e-05
5 *290:RESET_B *339:A 5.4003e-05
6 *290:RESET_B *355:A 5.61852e-05
7 *280:A1 *290:RESET_B 5.062e-06
8 *281:A2 *290:RESET_B 0
9 *287:A *290:RESET_B 3.45679e-05
10 *291:D *290:RESET_B 3.71411e-05
*RES
1 *287:Y *290:RESET_B 15.9575 
*END

*D_NET *25 0.000316344
*CONN
*I *291:RESET_B I *D sky130_fd_sc_hd__dfrtp_2
*I *288:Y O *D sky130_fd_sc_hd__inv_2
*CAP
1 *291:RESET_B 7.81306e-05
2 *288:Y 7.81306e-05
3 *291:RESET_B *293:A 3.89528e-05
4 *291:D *291:RESET_B 2.56899e-05
5 *18:9 *291:RESET_B 9.54399e-05
*RES
1 *288:Y *291:RESET_B 7.4675 
*END

*D_NET *26 0.000452766
*CONN
*I *286:A1 I *D sky130_fd_sc_hd__o21a_2
*I *277:Y O *D sky130_fd_sc_hd__inv_2
*CAP
1 *286:A1 0.000157628
2 *277:Y 0.000157628
3 *286:A1 *286:A2 4.82863e-05
4 *286:A1 *311:A 1.56428e-05
5 *286:A1 *38:12 7.35813e-05
*RES
1 *277:Y *286:A1 6.065 
*END

*D_NET *27 0.000293256
*CONN
*I *280:A0 I *D sky130_fd_sc_hd__mux2_1
*I *279:X O *D sky130_fd_sc_hd__xor2_2
*CAP
1 *280:A0 0.000122068
2 *279:X 0.000122068
3 *281:A2 *280:A0 0
4 *290:RESET_B *280:A0 4.91189e-05
*RES
1 *279:X *280:A0 9.345 
*END

*D_NET *28 0.000428156
*CONN
*I *286:A2 I *D sky130_fd_sc_hd__o21a_2
*I *281:X O *D sky130_fd_sc_hd__mux4_2
*CAP
1 *286:A2 0.000121149
2 *281:X 0.000121149
3 *281:S0 *286:A2 0.000137571
4 *286:A1 *286:A2 4.82863e-05
*RES
1 *281:X *286:A2 9.63 
*END

*D_NET *29 0.00102782
*CONN
*I *285:A1 I *D sky130_fd_sc_hd__a221o_2
*I *282:Y O *D sky130_fd_sc_hd__nand2b_2
*CAP
1 *285:A1 0.000210716
2 *282:Y 0.000210716
3 *285:A1 *285:A2 0.000323188
4 *285:A1 *285:B1 0.000141599
5 *285:A1 *379:A 0
6 *15:26 *285:A1 0.000141599
7 *15:30 *285:A1 0
8 *16:20 *285:A1 0
*RES
1 *282:Y *285:A1 12.915 
*END

*D_NET *30 0.000683442
*CONN
*I *285:A2 I *D sky130_fd_sc_hd__a221o_2
*I *283:X O *D sky130_fd_sc_hd__o21ba_2
*CAP
1 *285:A2 9.02736e-05
2 *283:X 9.02736e-05
3 *285:A2 *286:B1 6.8725e-06
4 *284:A0 *285:A2 2.05641e-05
5 *284:A1 *285:A2 0.000105841
6 *285:A1 *285:A2 0.000323188
7 *15:30 *285:A2 4.64291e-05
*RES
1 *283:X *285:A2 10.9987 
*END

*D_NET *31 0.000397773
*CONN
*I *285:B1 I *D sky130_fd_sc_hd__a221o_2
*I *284:X O *D sky130_fd_sc_hd__mux2_1
*CAP
1 *285:B1 7.84465e-05
2 *284:X 7.84465e-05
3 *285:B1 *299:A 9.92804e-05
4 *285:A1 *285:B1 0.000141599
*RES
1 *284:X *285:B1 9.285 
*END

*D_NET *32 0.000652268
*CONN
*I *286:B1 I *D sky130_fd_sc_hd__o21a_2
*I *285:X O *D sky130_fd_sc_hd__a221o_2
*CAP
1 *286:B1 0.000231703
2 *285:X 0.000231703
3 *286:B1 *299:A 4.40812e-05
4 *286:B1 *309:A 0
5 *286:B1 *311:A 0
6 *281:S0 *286:B1 6.01819e-05
7 *284:A1 *286:B1 7.77257e-05
8 *285:A2 *286:B1 6.8725e-06
*RES
1 *285:X *286:B1 11.415 
*END

*D_NET *33 0.00076824
*CONN
*I *290:D I *D sky130_fd_sc_hd__dfrtp_2
*I *316:X O *D sky130_fd_sc_hd__mux2_1
*CAP
1 *290:D 0.00023828
2 *316:X 0.00023828
3 *290:D *289:D 0.000116853
4 tdo *290:D 5.30057e-05
5 *278:A *290:D 0.00012182
6 *18:9 *290:D 0
*RES
1 *316:X *290:D 11.505 
*END

*D_NET *34 0.000242605
*CONN
*I *279:A I *D sky130_fd_sc_hd__xor2_2
*I *290:Q O *D sky130_fd_sc_hd__dfrtp_2
*CAP
1 *279:A 6.31922e-05
2 *290:Q 6.31922e-05
3 *290:RESET_B *279:A 0.000111295
4 *291:D *279:A 4.9253e-06
*RES
1 *290:Q *279:A 4.7 
*END

*D_NET *35 0.00142994
*CONN
*I *294:A I *D sky130_fd_sc_hd__clkbuf_16
*I *293:A I *D sky130_fd_sc_hd__clkbuf_16
*I *292:X O *D sky130_fd_sc_hd__clkbuf_16
*CAP
1 *294:A 0.000112071
2 *293:A 0.000345529
3 *292:X 0
4 *35:4 0.000457601
5 *294:A *295:A 8.64421e-05
6 *287:A *293:A 4.82919e-05
7 *287:A *294:A 0.000341055
8 *291:RESET_B *293:A 3.89528e-05
9 *18:7 *293:A 0
10 *18:9 *293:A 0
*RES
1 *292:X *35:4 1.6 
2 *35:4 *293:A 11.36 
3 *35:4 *294:A 4.81 
*END

*D_NET *36 0.00133876
*CONN
*I *289:CLK I *D sky130_fd_sc_hd__dfrtp_2
*I *291:CLK I *D sky130_fd_sc_hd__dfrtp_2
*I *293:X O *D sky130_fd_sc_hd__clkbuf_16
*CAP
1 *289:CLK 0.000450152
2 *291:CLK 0.00012469
3 *293:X 2.08101e-05
4 *36:6 0.000595653
5 *291:CLK *419:A 0
6 *291:CLK *420:A 4.18603e-06
7 *291:CLK *421:A 0.000143266
8 *5:17 *291:CLK 0
*RES
1 *293:X *36:6 1.96 
2 *36:6 *291:CLK 8.195 
3 *36:6 *289:CLK 8.26 
*END

*D_NET *37 0.00196852
*CONN
*I *290:CLK I *D sky130_fd_sc_hd__dfrtp_2
*I *295:A I *D sky130_fd_sc_hd__clkbuf_4
*I *294:X O *D sky130_fd_sc_hd__clkbuf_16
*CAP
1 *290:CLK 0.000247722
2 *295:A 8.0755e-05
3 *294:X 0.000252151
4 *37:8 0.000580627
5 tdo *290:CLK 3.64998e-06
6 *287:A *295:A 4.21518e-05
7 *287:A *37:8 0.000264979
8 *291:D *290:CLK 0.000205584
9 *294:A *295:A 8.64421e-05
10 *316:S *290:CLK 0.000204463
*RES
1 *294:X *37:8 6.205 
2 *37:8 *295:A 3.085 
3 *37:8 *290:CLK 11.21 
*END

*D_NET *38 0.00366143
*CONN
*I *437:A0 I *D sky130_fd_sc_hd__mux4_1
*I *289:D I *D sky130_fd_sc_hd__dfrtp_2
*I *296:A I *D sky130_fd_sc_hd__buf_1
*I *286:X O *D sky130_fd_sc_hd__o21a_2
*CAP
1 *437:A0 5.22428e-05
2 *289:D 0.000169465
3 *296:A 0
4 *286:X 0.00050835
5 *38:27 0.000697395
6 *38:12 0.000984037
7 *289:D *316:A0 8.66976e-06
8 *289:D *316:A1 2.67022e-05
9 *289:D *431:A 0
10 *437:A0 *437:A1 8.53113e-06
11 *38:12 *310:A 0
12 *38:12 *311:A 1.38677e-05
13 *38:27 *327:A 0.00016031
14 *38:27 *368:A 1.4399e-05
15 *38:27 *431:A 0.000347408
16 *38:27 *437:A1 0.00013521
17 tdo *289:D 0.000173595
18 tdo *38:27 0.000170809
19 *286:A1 *38:12 7.35813e-05
20 *289:RESET_B *289:D 0
21 *290:D *289:D 0.000116853
*RES
1 *286:X *38:12 11.57 
2 *38:12 *296:A 1.6 
3 *38:12 *38:27 11.7425 
4 *38:27 *289:D 7.8525 
5 *38:27 *437:A0 4.5375 
*END

*D_NET *39 0.00175129
*CONN
*I *437:A1 I *D sky130_fd_sc_hd__mux4_1
*I *317:A I *D sky130_fd_sc_hd__buf_1
*I *308:X O *D sky130_fd_sc_hd__buf_2
*CAP
1 *437:A1 0.000296207
2 *317:A 0.000122924
3 *308:X 6.38341e-05
4 *39:8 0.000482965
5 *317:A *305:A 1.49348e-05
6 *317:A *306:A 0.000112907
7 *317:A *372:A 4.94457e-05
8 *317:A *403:A 4.43871e-06
9 *437:A1 *403:A 4.13443e-05
10 *437:A1 *406:A 0.000210846
11 *437:A1 *431:A 0
12 *39:8 *305:A 3.30017e-05
13 tdo *317:A 8.61746e-05
14 tdo *437:A1 1.69212e-05
15 *437:A0 *437:A1 8.53113e-06
16 *437:S0 *437:A1 2.49909e-05
17 *437:S1 *437:A1 4.66108e-05
18 *38:27 *437:A1 0.00013521
*RES
1 *308:X *39:8 4.395 
2 *39:8 *317:A 6.705 
3 *39:8 *437:A1 10.065 
*END

*D_NET *40 0.000834276
*CONN
*I *337:A I *D sky130_fd_sc_hd__buf_1
*I *437:A2 I *D sky130_fd_sc_hd__mux4_1
*I *329:X O *D sky130_fd_sc_hd__buf_2
*CAP
1 *337:A 0.000136414
2 *437:A2 0.000124902
3 *329:X 0.000111668
4 *40:8 0.000372984
5 *337:A *345:A 4.43871e-06
6 *337:A *348:A 3.59997e-05
7 *337:A *350:A 0
8 *337:A *431:A 0
9 *437:A2 *316:A0 1.76968e-05
10 *40:8 *310:A 0
11 *281:A2 *337:A 0
12 *281:A2 *40:8 0
13 *437:S1 *437:A2 3.01732e-05
*RES
1 *329:X *40:8 5.235 
2 *40:8 *437:A2 5.3625 
3 *40:8 *337:A 5.94 
*END

*D_NET *41 0.00124781
*CONN
*I *437:A3 I *D sky130_fd_sc_hd__mux4_1
*I *357:A I *D sky130_fd_sc_hd__buf_1
*I *349:X O *D sky130_fd_sc_hd__buf_2
*CAP
1 *437:A3 3.60098e-05
2 *357:A 0.000104152
3 *349:X 0.000344086
4 *41:8 0.000484248
5 *357:A *431:A 7.23602e-05
6 *437:A3 *431:A 6.68849e-05
7 *41:8 *316:A0 2.5171e-05
8 *41:8 *348:A 4.40446e-05
9 *437:S1 *41:8 7.08554e-05
*RES
1 *349:X *41:8 7.845 
2 *41:8 *357:A 5.235 
3 *41:8 *437:A3 4.47 
*END

*D_NET *42 0.00237792
*CONN
*I *438:A0 I *D sky130_fd_sc_hd__mux4_1
*I *377:A I *D sky130_fd_sc_hd__buf_1
*I *369:X O *D sky130_fd_sc_hd__buf_2
*CAP
1 *438:A0 0.00054531
2 *377:A 0.000139987
3 *369:X 0
4 *42:6 0.000685297
5 *377:A *365:A 0
6 *377:A *366:A 0
7 *377:A *394:A 0
8 *377:A *413:A 0.000230981
9 *438:A0 *389:A 0
10 *438:A0 *394:A 0
11 *438:A0 *400:A 6.55328e-05
12 *438:A0 *413:A 0.000238056
13 *438:A0 *417:A 4.49498e-05
14 *438:A0 *419:A 0
15 *438:A0 *431:A 2.96466e-05
16 *438:A0 *433:A 0
17 *438:A0 *438:A2 7.73999e-05
18 *437:S0 *438:A0 2.05056e-05
19 *4:13 *438:A0 0.000201508
20 *5:17 *438:A0 9.87488e-05
*RES
1 *369:X *42:6 3.6 
2 *42:6 *377:A 6.705 
3 *42:6 *438:A0 15.315 
*END

*D_NET *43 0.0016685
*CONN
*I *397:A I *D sky130_fd_sc_hd__buf_1
*I *438:A1 I *D sky130_fd_sc_hd__mux4_1
*I *389:X O *D sky130_fd_sc_hd__buf_2
*CAP
1 *397:A 0.000300187
2 *438:A1 8.45712e-05
3 *389:X 0
4 *43:4 0.000384758
5 *397:A *409:A 1.37328e-05
6 *397:A *417:A 0.000114492
7 *397:A *418:A 0.000183442
8 *397:A *428:A 6.02202e-05
9 *397:A *431:A 7.66307e-05
10 *397:A *432:A 0.00017985
11 *397:A *433:A 0.000107604
12 *397:A *438:A2 5.16418e-05
13 *397:A *44:8 4.66108e-05
14 *438:A1 *419:A 6.47594e-05
15 *438:A1 *431:A 0
16 tdo *397:A 0
17 *4:13 *438:A1 0
*RES
1 *389:X *43:4 1.6 
2 *43:4 *438:A1 7.235 
3 *43:4 *397:A 13.07 
*END

*D_NET *44 0.00113426
*CONN
*I *438:A2 I *D sky130_fd_sc_hd__mux4_1
*I *417:A I *D sky130_fd_sc_hd__buf_1
*I *409:X O *D sky130_fd_sc_hd__buf_2
*CAP
1 *438:A2 0.00014011
2 *417:A 0.000107647
3 *409:X 3.69588e-05
4 *44:8 0.000284716
5 *417:A *408:A 7.22354e-05
6 *417:A *428:A 5.05437e-05
7 *438:A2 *428:A 7.06312e-05
8 *438:A2 *438:A3 8.7373e-06
9 *397:A *417:A 0.000114492
10 *397:A *438:A2 5.16418e-05
11 *397:A *44:8 4.66108e-05
12 *437:S0 *438:A2 1.79431e-05
13 *438:A0 *417:A 4.49498e-05
14 *438:A0 *438:A2 7.73999e-05
15 *5:17 *438:A2 9.64638e-06
*RES
1 *409:X *44:8 4.05 
2 *44:8 *417:A 6.465 
3 *44:8 *438:A2 7.0875 
*END

*D_NET *45 0.000663472
*CONN
*I *438:A3 I *D sky130_fd_sc_hd__mux4_1
*I *429:X O *D sky130_fd_sc_hd__buf_1
*CAP
1 *438:A3 0.000257373
2 *429:X 0.000257373
3 *438:A3 *419:A 0
4 *438:A3 *426:A 1.06689e-05
5 *438:A3 *428:A 5.89436e-05
6 *438:A3 *429:A 3.98475e-05
7 *438:A2 *438:A3 8.7373e-06
8 *438:S1 *438:A3 3.05295e-05
*RES
1 *429:X *438:A3 11.07 
*END

*D_NET *46 0.00147007
*CONN
*I *316:A0 I *D sky130_fd_sc_hd__mux2_1
*I *437:X O *D sky130_fd_sc_hd__mux4_1
*CAP
1 *316:A0 0.000557796
2 *437:X 0.000557796
3 *316:A0 *316:A1 7.01359e-05
4 *316:A0 *348:A 4.82919e-05
5 *316:A0 *430:A 4.89295e-05
6 *278:A *316:A0 2.68464e-05
7 *289:D *316:A0 8.66976e-06
8 *437:A2 *316:A0 1.76968e-05
9 *437:S1 *316:A0 0.000108738
10 *41:8 *316:A0 2.5171e-05
*RES
1 *437:X *316:A0 14.865 
*END

*D_NET *47 0.000557959
*CONN
*I *316:A1 I *D sky130_fd_sc_hd__mux2_1
*I *438:X O *D sky130_fd_sc_hd__mux4_1
*CAP
1 *316:A1 0.000178838
2 *438:X 0.000178838
3 *289:D *316:A1 2.67022e-05
4 *316:A0 *316:A1 7.01359e-05
5 *437:S1 *316:A1 0.000103445
*RES
1 *438:X *316:A1 9.9 
*END

*D_NET *48 0.000132364
*CONN
*I *298:A I *D sky130_fd_sc_hd__buf_1
*I *297:X O *D sky130_fd_sc_hd__buf_1
*CAP
1 *298:A 6.34744e-05
2 *297:X 6.34744e-05
3 *298:A *297:A 5.4155e-06
*RES
1 *297:X *298:A 4.265 
*END

*D_NET *49 0.000386631
*CONN
*I *297:A I *D sky130_fd_sc_hd__buf_1
*I *315:X O *D sky130_fd_sc_hd__buf_1
*CAP
1 *297:A 0.000190608
2 *315:X 0.000190608
3 *297:A *321:A 0
4 *297:A *323:A 0
5 *298:A *297:A 5.4155e-06
6 *16:20 *297:A 0
*RES
1 *315:X *297:A 10.08 
*END

*D_NET *50 0.000979926
*CONN
*I *299:A I *D sky130_fd_sc_hd__buf_1
*I *298:X O *D sky130_fd_sc_hd__buf_1
*CAP
1 *299:A 0.000225718
2 *298:X 0.000225718
3 *299:A *300:A 1.34594e-05