* NGSPICE file created from rca.ext - technology: sky130A

.subckt sky130_fd_sc_hd__decap_3 VPWR VGND VPB VNB
X0 VPWR VGND VPWR VPB sky130_fd_pr__pfet_01v8_hvt ad=0.2262 pd=2.26 as=0.4524 ps=4.52 w=0.87 l=0.59
X1 VGND VPWR VGND VNB sky130_fd_pr__nfet_01v8 ad=0.143 pd=1.62 as=0.286 ps=3.24 w=0.55 l=0.59
C0 VGND VPWR 0.353f
C1 VPB VPWR 0.0625f
C2 VPB VGND 0.07966f
C3 VPWR VNB 0.46997f
C4 VGND VNB 0.42732f
C5 VPB VNB 0.33898f
.ends

.subckt sky130_fd_sc_hd__dfrtp_1 VGND VPWR VPB VNB CLK D RESET_B Q a_1462_47# a_543_47#
+ a_651_413# a_193_47# a_805_47# a_448_47# a_639_47# a_1283_21# a_761_289# a_1108_47#
+ a_1217_47# a_1270_413# a_27_47#
X0 a_805_47# a_761_289# a_639_47# VNB sky130_fd_pr__nfet_01v8 ad=0.0441 pd=0.63 as=0.1401 ps=1.1 w=0.42 l=0.15
X1 a_1217_47# a_27_47# a_1108_47# VNB sky130_fd_pr__special_nfet_01v8 ad=0.0669 pd=0.75 as=0.0711 ps=0.755 w=0.36 l=0.15
X2 a_1283_21# a_1108_47# a_1462_47# VNB sky130_fd_pr__nfet_01v8 ad=0.1092 pd=1.36 as=0.06405 ps=0.725 w=0.42 l=0.15
X3 a_651_413# a_27_47# a_543_47# VPB sky130_fd_pr__pfet_01v8_hvt ad=0.1155 pd=0.97 as=0.07245 ps=0.765 w=0.42 l=0.15
X4 a_1108_47# a_193_47# a_761_289# VNB sky130_fd_pr__special_nfet_01v8 ad=0.0711 pd=0.755 as=0.0999 ps=0.985 w=0.36 l=0.15
X5 VGND RESET_B a_805_47# VNB sky130_fd_pr__nfet_01v8 ad=0.1346 pd=1.15 as=0.0441 ps=0.63 w=0.42 l=0.15
X6 Q a_1283_21# VPWR VPB sky130_fd_pr__pfet_01v8_hvt ad=0.26 pd=2.52 as=0.3012 ps=2.66 w=1 l=0.15
X7 VPWR CLK a_27_47# VPB sky130_fd_pr__pfet_01v8_hvt ad=0.0864 pd=0.91 as=0.1664 ps=1.8 w=0.64 l=0.15
X8 a_448_47# D VPWR VPB sky130_fd_pr__pfet_01v8_hvt ad=0.0651 pd=0.73 as=0.1092 ps=1.36 w=0.42 l=0.15
X9 a_761_289# a_543_47# VGND VNB sky130_fd_pr__nfet_01v8 ad=0.0999 pd=0.985 as=0.1346 ps=1.15 w=0.64 l=0.15
X10 a_193_47# a_27_47# VGND VNB sky130_fd_pr__nfet_01v8 ad=0.1092 pd=1.36 as=0.0567 ps=0.69 w=0.42 l=0.15
X11 a_1108_47# a_27_47# a_761_289# VPB sky130_fd_pr__pfet_01v8_hvt ad=0.0588 pd=0.7 as=0.12915 ps=1.185 w=0.42 l=0.15
X12 a_1462_47# RESET_B VGND VNB sky130_fd_pr__nfet_01v8 ad=0.06405 pd=0.725 as=0.12495 ps=1.015 w=0.42 l=0.15
X13 a_543_47# a_27_47# a_448_47# VNB sky130_fd_pr__special_nfet_01v8 ad=0.0594 pd=0.69 as=0.066 ps=0.745 w=0.36 l=0.15
X14 a_543_47# a_193_47# a_448_47# VPB sky130_fd_pr__pfet_01v8_hvt ad=0.07245 pd=0.765 as=0.0651 ps=0.73 w=0.42 l=0.15
X15 a_448_47# D VGND VNB sky130_fd_pr__nfet_01v8 ad=0.066 pd=0.745 as=0.2205 ps=1.89 w=0.42 l=0.15
X16 VPWR a_1283_21# a_1270_413# VPB sky130_fd_pr__pfet_01v8_hvt ad=0.0819 pd=0.81 as=0.0567 ps=0.69 w=0.42 l=0.15
X17 VPWR a_1108_47# a_1283_21# VPB sky130_fd_pr__pfet_01v8_hvt ad=0.1134 pd=1.38 as=0.0567 ps=0.69 w=0.42 l=0.15
X18 a_1270_413# a_193_47# a_1108_47# VPB sky130_fd_pr__pfet_01v8_hvt ad=0.0567 pd=0.69 as=0.0588 ps=0.7 w=0.42 l=0.15
X19 a_193_47# a_27_47# VPWR VPB sky130_fd_pr__pfet_01v8_hvt ad=0.1664 pd=1.8 as=0.0864 ps=0.91 w=0.64 l=0.15
X20 a_1283_21# RESET_B VPWR VPB sky130_fd_pr__pfet_01v8_hvt ad=0.0567 pd=0.69 as=0.0819 ps=0.81 w=0.42 l=0.15
X21 VPWR a_761_289# a_651_413# VPB sky130_fd_pr__pfet_01v8_hvt ad=0.07035 pd=0.755 as=0.1155 ps=0.97 w=0.42 l=0.15
X22 Q a_1283_21# VGND VNB sky130_fd_pr__nfet_01v8 ad=0.169 pd=1.82 as=0.2087 ps=2.02 w=0.65 l=0.15
X23 a_639_47# a_193_47# a_543_47# VNB sky130_fd_pr__special_nfet_01v8 ad=0.1401 pd=1.1 as=0.0594 ps=0.69 w=0.36 l=0.15
X24 VGND a_1283_21# a_1217_47# VNB sky130_fd_pr__nfet_01v8 ad=0.12495 pd=1.015 as=0.0669 ps=0.75 w=0.42 l=0.15
X25 a_651_413# RESET_B VPWR VPB sky130_fd_pr__pfet_01v8_hvt ad=0.1092 pd=1.36 as=0.07035 ps=0.755 w=0.42 l=0.15
X26 VGND CLK a_27_47# VNB sky130_fd_pr__nfet_01v8 ad=0.0567 pd=0.69 as=0.1092 ps=1.36 w=0.42 l=0.15
X27 a_761_289# a_543_47# VPWR VPB sky130_fd_pr__pfet_01v8_hvt ad=0.12915 pd=1.185 as=0.2184 ps=2.2 w=0.84 l=0.15
C0 a_448_47# a_543_47# 0.04983f
C1 a_639_47# VGND 0.00863f
C2 a_1217_47# RESET_B 0
C3 a_805_47# a_543_47# 0.00171f
C4 a_805_47# a_761_289# 0
C5 a_651_413# a_193_47# 0.03462f
C6 a_651_413# a_27_47# 0
C7 RESET_B VPWR 0.06519f
C8 D VGND 0.05161f
C9 a_543_47# RESET_B 0.15327f
C10 a_761_289# RESET_B 0.16611f
C11 a_448_47# VGND 0.0661f
C12 a_805_47# VGND 0.00579f
C13 a_1462_47# RESET_B 0.00288f
C14 a_1217_47# a_761_289# 0
C15 a_1270_413# a_193_47# 0
C16 a_1108_47# RESET_B 0.2366f
C17 a_543_47# VPWR 0.10029f
C18 RESET_B VGND 0.28777f
C19 a_761_289# VPWR 0.10497f
C20 a_761_289# a_543_47# 0.20964f
C21 a_1108_47# a_1217_47# 0.00742f
C22 VPB D 0.13757f
C23 a_1217_47# VGND 0
C24 a_639_47# a_193_47# 0
C25 a_448_47# VPB 0.01414f
C26 a_1108_47# VPWR 0.17338f
C27 a_1108_47# a_543_47# 0
C28 a_639_47# a_27_47# 0.00188f
C29 a_1108_47# a_761_289# 0.05116f
C30 VPWR VGND 0.0502f
C31 a_543_47# VGND 0.12293f
C32 RESET_B Q 0
C33 a_761_289# VGND 0.07338f
C34 a_193_47# D 0.21795f
C35 a_27_47# D 0.13285f
C36 a_448_47# a_193_47# 0.06418f
C37 a_448_47# a_27_47# 0.09313f
C38 VPB RESET_B 0.13848f
C39 a_1462_47# VGND 0.00221f
C40 a_1108_47# VGND 0.148f
C41 VPWR Q 0.09969f
C42 a_193_47# RESET_B 0.0269f
C43 a_27_47# RESET_B 0.29634f
C44 a_1283_21# RESET_B 0.27814f
C45 CLK RESET_B 0
C46 VPB VPWR 0.21644f
C47 VPB a_543_47# 0.09579f
C48 VPB a_761_289# 0.09942f
C49 a_1217_47# a_193_47# 0
C50 a_1108_47# Q 0
C51 a_1217_47# a_27_47# 0
C52 VGND Q 0.06158f
C53 a_193_47# a_543_47# 0.2298f
C54 a_193_47# VPWR 0.39582f
C55 a_27_47# a_543_47# 0.11535f
C56 a_193_47# a_761_289# 0.18639f
C57 a_27_47# VPWR 0.1523f
C58 a_1108_47# VPB 0.11341f
C59 a_1283_21# VPWR 0.20891f
C60 a_27_47# a_761_289# 0.07009f
C61 VPB VGND 0.00999f
C62 CLK VPWR 0.01741f
C63 a_1283_21# a_1462_47# 0.0074f
C64 a_1108_47# a_193_47# 0.12532f
C65 a_1108_47# a_27_47# 0.10236f
C66 a_193_47# VGND 0.06306f
C67 a_1283_21# a_1108_47# 0.23366f
C68 a_27_47# VGND 0.25396f
C69 a_1283_21# VGND 0.23953f
C70 VPB Q 0.011f
C71 CLK VGND 0.01721f
C72 a_193_47# Q 0
C73 a_27_47# Q 0
C74 a_1283_21# Q 0.05978f
C75 a_651_413# RESET_B 0.0122f
C76 VPB a_193_47# 0.17092f
C77 VPB a_27_47# 0.26188f
C78 a_1283_21# VPB 0.13654f
C79 VPB CLK 0.06934f
C80 a_1270_413# RESET_B 0
C81 a_651_413# VPWR 0.12856f
C82 a_27_47# a_193_47# 0.90645f
C83 a_651_413# a_543_47# 0.05722f
C84 a_1283_21# a_193_47# 0.04242f
C85 a_651_413# a_761_289# 0.09774f
C86 a_448_47# a_639_47# 0
C87 CLK a_193_47# 0
C88 a_1283_21# a_27_47# 0.04357f
C89 CLK a_27_47# 0.2336f
C90 a_448_47# D 0.15563f
C91 a_639_47# RESET_B 0
C92 a_1270_413# VPWR 0
C93 a_1270_413# a_761_289# 0
C94 D RESET_B 0
C95 a_448_47# RESET_B 0
C96 a_1108_47# a_1270_413# 0.00645f
C97 a_805_47# RESET_B 0.00316f
C98 a_639_47# a_543_47# 0.01379f
C99 a_639_47# a_761_289# 0
C100 D VPWR 0.08119f
C101 a_543_47# D 0
C102 a_651_413# VPB 0.01354f
C103 a_448_47# VPWR 0.06814f
C104 Q VNB 0.08987f
C105 VGND VNB 1.02171f
C106 VPWR VNB 0.83084f
C107 RESET_B VNB 0.26386f
C108 D VNB 0.15989f
C109 CLK VNB 0.19525f
C110 VPB VNB 1.84511f
C111 a_651_413# VNB 0.00469f
C112 a_448_47# VNB 0.0139f
C113 a_1108_47# VNB 0.13854f
C114 a_1283_21# VNB 0.29898f
C115 a_543_47# VNB 0.15787f
C116 a_761_289# VNB 0.12085f
C117 a_193_47# VNB 0.27357f
C118 a_27_47# VNB 0.49578f
.ends

.subckt sky130_fd_sc_hd__and2_1 VPWR VGND X B A VPB VNB a_145_75# a_59_75#
X0 VPWR B a_59_75# VPB sky130_fd_pr__pfet_01v8_hvt ad=0.16655 pd=1.39 as=0.0567 ps=0.69 w=0.42 l=0.15
X1 X a_59_75# VPWR VPB sky130_fd_pr__pfet_01v8_hvt ad=0.475 pd=2.95 as=0.16655 ps=1.39 w=1 l=0.15
X2 VGND B a_145_75# VNB sky130_fd_pr__nfet_01v8 ad=0.1118 pd=1.04 as=0.0567 ps=0.69 w=0.42 l=0.15
X3 a_59_75# A VPWR VPB sky130_fd_pr__pfet_01v8_hvt ad=0.0567 pd=0.69 as=0.1176 ps=1.4 w=0.42 l=0.15
X4 X a_59_75# VGND VNB sky130_fd_pr__nfet_01v8 ad=0.182 pd=1.86 as=0.1118 ps=1.04 w=0.65 l=0.15
X5 a_145_75# A a_59_75# VNB sky130_fd_pr__nfet_01v8 ad=0.0567 pd=0.69 as=0.1176 ps=1.4 w=0.42 l=0.15
C0 VGND B 0.01146f
C1 VPB VPWR 0.07293f
C2 VGND a_59_75# 0.11564f
C3 VPB A 0.08057f
C4 X VGND 0.09933f
C5 VGND a_145_75# 0.00468f
C6 VPWR A 0.03623f
C7 VPB B 0.06287f
C8 a_59_75# VPB 0.05631f
C9 VPWR B 0.01175f
C10 X VPB 0.01265f
C11 a_59_75# VPWR 0.15028f
C12 A B 0.09709f
C13 X VPWR 0.11122f
C14 a_145_75# VPWR 0
C15 a_59_75# A 0.08088f
C16 X A 0
C17 a_59_75# B 0.14331f
C18 X B 0.00276f
C19 X a_59_75# 0.10872f
C20 a_59_75# a_145_75# 0.00658f
C21 VGND VPB 0.008f
C22 X a_145_75# 0
C23 VGND VPWR 0.04608f
C24 VGND A 0.01472f
C25 VGND VNB 0.3114f
C26 X VNB 0.10018f
C27 B VNB 0.11287f
C28 A VNB 0.17379f
C29 VPWR VNB 0.27345f
C30 VPB VNB 0.51617f
C31 a_59_75# VNB 0.17706f
.ends

.subckt sky130_fd_sc_hd__or2_1 VPB VNB VGND VPWR X A B a_150_297# a_68_297#
X0 VGND A a_68_297# VNB sky130_fd_pr__nfet_01v8 ad=0.10025 pd=0.985 as=0.0567 ps=0.69 w=0.42 l=0.15
X1 a_68_297# B VGND VNB sky130_fd_pr__nfet_01v8 ad=0.0567 pd=0.69 as=0.1092 ps=1.36 w=0.42 l=0.15
X2 X a_68_297# VGND VNB sky130_fd_pr__nfet_01v8 ad=0.169 pd=1.82 as=0.10025 ps=0.985 w=0.65 l=0.15
X3 VPWR A a_150_297# VPB sky130_fd_pr__pfet_01v8_hvt ad=0.14575 pd=1.335 as=0.0441 ps=0.63 w=0.42 l=0.15
X4 X a_68_297# VPWR VPB sky130_fd_pr__pfet_01v8_hvt ad=0.34 pd=2.68 as=0.14575 ps=1.335 w=1 l=0.15
X5 a_150_297# B a_68_297# VPB sky130_fd_pr__pfet_01v8_hvt ad=0.0441 pd=0.63 as=0.1092 ps=1.36 w=0.42 l=0.15
C0 B VGND 0.04365f
C1 A VPWR 0.00846f
C2 a_68_297# VPB 0.06114f
C3 X VPWR 0.12857f
C4 a_68_297# VPWR 0.08898f
C5 B A 0.07509f
C6 B X 0
C7 a_150_297# VPWR 0.00193f
C8 B a_68_297# 0.09843f
C9 A VGND 0.03465f
C10 VPB VPWR 0.08053f
C11 VGND X 0.11395f
C12 VGND a_68_297# 0.11796f
C13 B VPB 0.0462f
C14 A X 0.01305f
C15 VGND a_150_297# 0
C16 B VPWR 0.00855f
C17 A a_68_297# 0.15786f
C18 X a_68_297# 0.10534f
C19 VGND VPB 0.0112f
C20 X a_150_297# 0
C21 a_68_297# a_150_297# 0.00477f
C22 VGND VPWR 0.04645f
C23 A VPB 0.03097f
C24 X VPB 0.0209f
C25 VGND VNB 0.32043f
C26 X VNB 0.10095f
C27 A VNB 0.11072f
C28 B VNB 0.18272f
C29 VPWR VNB 0.26856f
C30 VPB VNB 0.51617f
C31 a_68_297# VNB 0.15387f
.ends

.subckt sky130_fd_sc_hd__buf_2 VPWR VGND X A VPB VNB a_27_47#
X0 VPWR a_27_47# X VPB sky130_fd_pr__pfet_01v8_hvt ad=0.265 pd=2.53 as=0.135 ps=1.27 w=1 l=0.15
X1 X a_27_47# VPWR VPB sky130_fd_pr__pfet_01v8_hvt ad=0.135 pd=1.27 as=0.149 ps=1.325 w=1 l=0.15
X2 VPWR A a_27_47# VPB sky130_fd_pr__pfet_01v8_hvt ad=0.149 pd=1.325 as=0.1664 ps=1.8 w=0.64 l=0.15
X3 X a_27_47# VGND VNB sky130_fd_pr__nfet_01v8 ad=0.08775 pd=0.92 as=0.097 ps=0.975 w=0.65 l=0.15
X4 VGND a_27_47# X VNB sky130_fd_pr__nfet_01v8 ad=0.17225 pd=1.83 as=0.08775 ps=0.92 w=0.65 l=0.15
X5 VGND A a_27_47# VNB sky130_fd_pr__nfet_01v8 ad=0.097 pd=0.975 as=0.1092 ps=1.36 w=0.42 l=0.15
C0 A VGND 0.01989f
C1 VPWR VPB 0.05279f
C2 X VPB 0.00443f
C3 A VPWR 0.02211f
C4 A X 0.00306f
C5 a_27_47# VPB 0.07497f
C6 VPWR VGND 0.05175f
C7 VGND X 0.11126f
C8 A a_27_47# 0.15787f
C9 VPWR X 0.16899f
C10 A VPB 0.06973f
C11 VGND a_27_47# 0.12719f
C12 VPWR a_27_47# 0.1533f
C13 X a_27_47# 0.14879f
C14 VGND VPB 0.00642f
C15 VGND VNB 0.28418f
C16 X VNB 0.0215f
C17 VPWR VNB 0.24963f
C18 A VNB 0.18747f
C19 VPB VNB 0.42757f
C20 a_27_47# VNB 0.28447f
.ends

.subckt sky130_fd_sc_hd__a21bo_1 VNB VPB VGND VPWR X A2 A1 B1_N a_215_297# a_27_413#
+ a_298_297# a_382_47#
X0 a_298_297# a_27_413# a_215_297# VPB sky130_fd_pr__pfet_01v8_hvt ad=0.135 pd=1.27 as=0.265 ps=2.53 w=1 l=0.15
X1 a_215_297# a_27_413# VGND VNB sky130_fd_pr__nfet_01v8 ad=0.08775 pd=0.92 as=0.1359 ps=1.1 w=0.65 l=0.15
X2 a_298_297# A2 VPWR VPB sky130_fd_pr__pfet_01v8_hvt ad=0.265 pd=2.53 as=0.14 ps=1.28 w=1 l=0.15
X3 X a_215_297# VGND VNB sky130_fd_pr__nfet_01v8 ad=0.169 pd=1.82 as=0.25837 ps=1.445 w=0.65 l=0.15
X4 VPWR B1_N a_27_413# VPB sky130_fd_pr__pfet_01v8_hvt ad=0.1092 pd=1.36 as=0.1092 ps=1.36 w=0.42 l=0.15
X5 X a_215_297# VPWR VPB sky130_fd_pr__pfet_01v8_hvt ad=0.26 pd=2.52 as=0.26 ps=2.52 w=1 l=0.15
X6 a_382_47# A1 a_215_297# VNB sky130_fd_pr__nfet_01v8 ad=0.091 pd=0.93 as=0.08775 ps=0.92 w=0.65 l=0.15
X7 VGND B1_N a_27_413# VNB sky130_fd_pr__nfet_01v8 ad=0.1359 pd=1.1 as=0.1113 ps=1.37 w=0.42 l=0.15
X8 VPWR A1 a_298_297# VPB sky130_fd_pr__pfet_01v8_hvt ad=0.14 pd=1.28 as=0.135 ps=1.27 w=1 l=0.15
X9 VGND A2 a_382_47# VNB sky130_fd_pr__nfet_01v8 ad=0.25837 pd=1.445 as=0.091 ps=0.93 w=0.65 l=0.15
C0 VPB A2 0.04174f
C1 B1_N VGND 0.04923f
C2 A1 a_215_297# 0.09298f
C3 VPB a_298_297# 0.00345f
C4 A2 A1 0.11177f
C5 VGND X 0.05729f
C6 A1 a_298_297# 0.04941f
C7 a_382_47# X 0
C8 VPWR a_27_413# 0.10723f
C9 VPB VGND 0.01171f
C10 a_27_413# a_215_297# 0.14121f
C11 A2 a_27_413# 0
C12 VPWR a_215_297# 0.12987f
C13 VGND A1 0.01436f
C14 VPWR A2 0.0307f
C15 a_382_47# A1 0
C16 a_27_413# a_298_297# 0.00498f
C17 VPWR a_298_297# 0.19626f
C18 A2 a_215_297# 0.09491f
C19 B1_N X 0
C20 a_215_297# a_298_297# 0.07178f
C21 A2 a_298_297# 0.0357f
C22 B1_N VPB 0.10324f
C23 VGND a_27_413# 0.09815f
C24 VPWR VGND 0.07888f
C25 a_382_47# VPWR 0
C26 B1_N A1 0
C27 VGND a_215_297# 0.27179f
C28 a_382_47# a_215_297# 0.01048f
C29 A2 VGND 0.01967f
C30 VPB X 0.01173f
C31 VGND a_298_297# 0.00393f
C32 a_382_47# a_298_297# 0
C33 A1 X 0
C34 VPB A1 0.02766f
C35 B1_N a_27_413# 0.23707f
C36 B1_N VPWR 0.01897f
C37 a_382_47# VGND 0.0053f
C38 B1_N a_215_297# 0.00479f
C39 B1_N A2 0
C40 X a_27_413# 0
C41 VPWR X 0.11491f
C42 VPB a_27_413# 0.0987f
C43 B1_N a_298_297# 0
C44 VPB VPWR 0.09762f
C45 X a_215_297# 0.08024f
C46 A2 X 0.00569f
C47 A1 a_27_413# 0.05727f
C48 VPB a_215_297# 0.05456f
C49 VPWR A1 0.02152f
C50 VGND VNB 0.43958f
C51 X VNB 0.089f
C52 VPWR VNB 0.36562f
C53 A2 VNB 0.10755f
C54 A1 VNB 0.08928f
C55 B1_N VNB 0.29046f
C56 VPB VNB 0.78196f
C57 a_298_297# VNB 0.0039f
C58 a_215_297# VNB 0.15284f
C59 a_27_413# VNB 0.17158f
.ends

.subckt sky130_fd_sc_hd__xnor2_1 VGND VPWR B Y A VPB VNB a_129_47# a_47_47# a_285_47#
+ a_377_297#
X0 a_377_297# A VPWR VPB sky130_fd_pr__pfet_01v8_hvt ad=0.105 pd=1.21 as=0.365 ps=1.73 w=1 l=0.15
X1 a_47_47# B VPWR VPB sky130_fd_pr__pfet_01v8_hvt ad=0.135 pd=1.27 as=0.3 ps=2.6 w=1 l=0.15
X2 a_129_47# B a_47_47# VNB sky130_fd_pr__nfet_01v8 ad=0.06825 pd=0.86 as=0.169 ps=1.82 w=0.65 l=0.15
X3 a_285_47# B VGND VNB sky130_fd_pr__nfet_01v8 ad=0.08775 pd=0.92 as=0.169 ps=1.82 w=0.65 l=0.15
X4 Y a_47_47# a_285_47# VNB sky130_fd_pr__nfet_01v8 ad=0.195 pd=1.9 as=0.08775 ps=0.92 w=0.65 l=0.15
X5 VGND A a_129_47# VNB sky130_fd_pr__nfet_01v8 ad=0.08775 pd=0.92 as=0.06825 ps=0.86 w=0.65 l=0.15
X6 VPWR A a_47_47# VPB sky130_fd_pr__pfet_01v8_hvt ad=0.365 pd=1.73 as=0.135 ps=1.27 w=1 l=0.15
X7 VPWR a_47_47# Y VPB sky130_fd_pr__pfet_01v8_hvt ad=0.36 pd=2.72 as=0.165 ps=1.33 w=1 l=0.15
X8 Y B a_377_297# VPB sky130_fd_pr__pfet_01v8_hvt ad=0.165 pd=1.33 as=0.105 ps=1.21 w=1 l=0.15
X9 a_285_47# A VGND VNB sky130_fd_pr__nfet_01v8 ad=0.169 pd=1.82 as=0.08775 ps=0.92 w=0.65 l=0.15
C0 a_47_47# a_285_47# 0.01755f
C1 a_377_297# B 0.00254f
C2 a_285_47# Y 0.04387f
C3 a_285_47# VGND 0.21054f
C4 B VPB 0.06433f
C5 A VPB 0.0822f
C6 VPWR B 0.04082f
C7 A VPWR 0.03489f
C8 a_47_47# B 0.35554f
C9 A a_47_47# 0.0307f
C10 B Y 0.00334f
C11 A Y 0.00181f
C12 B a_129_47# 0.00236f
C13 B VGND 0.03892f
C14 A VGND 0.06347f
C15 VPWR a_377_297# 0.00559f
C16 a_377_297# a_47_47# 0.00899f
C17 a_377_297# Y 0.00188f
C18 VPWR VPB 0.07177f
C19 a_285_47# B 0.06696f
C20 A a_285_47# 0.03532f
C21 a_377_297# VGND 0.00125f
C22 a_47_47# VPB 0.04439f
C23 VPWR a_47_47# 0.27294f
C24 VPB Y 0.00878f
C25 VPWR Y 0.10728f
C26 VPWR a_129_47# 0
C27 a_47_47# Y 0.14268f
C28 a_47_47# a_129_47# 0.00369f
C29 VPB VGND 0.00568f
C30 VPWR VGND 0.06652f
C31 a_47_47# VGND 0.10353f
C32 A B 0.23582f
C33 Y VGND 0.03811f
C34 a_129_47# VGND 0.00547f
C35 a_285_47# VPB 0
C36 VPWR a_285_47# 0.00255f
C37 VGND VNB 0.39981f
C38 Y VNB 0.07833f
C39 VPWR VNB 0.35194f
C40 A VNB 0.21658f
C41 B VNB 0.21233f
C42 VPB VNB 0.69336f
C43 a_285_47# VNB 0.01742f
C44 a_47_47# VNB 0.19928f
.ends

.subckt sky130_fd_sc_hd__nand2_1 VPB VNB VGND VPWR A Y B a_113_47#
X0 VPWR A Y VPB sky130_fd_pr__pfet_01v8_hvt ad=0.26 pd=2.52 as=0.135 ps=1.27 w=1 l=0.15
X1 Y A a_113_47# VNB sky130_fd_pr__nfet_01v8 ad=0.169 pd=1.82 as=0.08775 ps=0.92 w=0.65 l=0.15
X2 a_113_47# B VGND VNB sky130_fd_pr__nfet_01v8 ad=0.08775 pd=0.92 as=0.169 ps=1.82 w=0.65 l=0.15
X3 Y B VPWR VPB sky130_fd_pr__pfet_01v8_hvt ad=0.135 pd=1.27 as=0.26 ps=2.52 w=1 l=0.15
C0 a_113_47# Y 0.00937f
C1 VGND VPWR 0.03219f
C2 VGND Y 0.1389f
C3 A VPB 0.03788f
C4 B A 0.05096f
C5 VPB VPWR 0.05086f
C6 B VPWR 0.04784f
C7 a_113_47# VGND 0.0019f
C8 VPB Y 0.00618f
C9 B Y 0.04807f
C10 VGND VPB 0.0044f
C11 B VGND 0.0544f
C12 A VPWR 0.04444f
C13 A Y 0.08548f
C14 B VPB 0.03907f
C15 VPWR Y 0.21141f
C16 a_113_47# VPWR 0
C17 A VGND 0.00949f
C18 VGND VNB 0.23167f
C19 Y VNB 0.05566f
C20 VPWR VNB 0.24511f
C21 A VNB 0.14338f
C22 B VNB 0.14583f
C23 VPB VNB 0.33898f
.ends

.subckt sky130_fd_sc_hd__bufinv_16 VNB VPB VGND VPWR A Y a_361_47# a_27_47#
X0 a_361_47# a_27_47# VGND VNB sky130_fd_pr__nfet_01v8 ad=0.08775 pd=0.92 as=0.08775 ps=0.92 w=0.65 l=0.15
X1 VPWR a_361_47# Y VPB sky130_fd_pr__pfet_01v8_hvt ad=0.135 pd=1.27 as=0.135 ps=1.27 w=1 l=0.15
X2 a_361_47# a_27_47# VGND VNB sky130_fd_pr__nfet_01v8 ad=0.08775 pd=0.92 as=0.08775 ps=0.92 w=0.65 l=0.15
X3 Y a_361_47# VGND VNB sky130_fd_pr__nfet_01v8 ad=0.08775 pd=0.92 as=0.08775 ps=0.92 w=0.65 l=0.15
X4 VPWR a_361_47# Y VPB sky130_fd_pr__pfet_01v8_hvt ad=0.135 pd=1.27 as=0.135 ps=1.27 w=1 l=0.15
X5 Y a_361_47# VGND VNB sky130_fd_pr__nfet_01v8 ad=0.08775 pd=0.92 as=0.08775 ps=0.92 w=0.65 l=0.15
X6 Y a_361_47# VPWR VPB sky130_fd_pr__pfet_01v8_hvt ad=0.135 pd=1.27 as=0.135 ps=1.27 w=1 l=0.15
X7 VPWR a_27_47# a_361_47# VPB sky130_fd_pr__pfet_01v8_hvt ad=0.135 pd=1.27 as=0.135 ps=1.27 w=1 l=0.15
X8 VPWR a_361_47# Y VPB sky130_fd_pr__pfet_01v8_hvt ad=0.26 pd=2.52 as=0.135 ps=1.27 w=1 l=0.15
X9 VPWR a_361_47# Y VPB sky130_fd_pr__pfet_01v8_hvt ad=0.135 pd=1.27 as=0.135 ps=1.27 w=1 l=0.15
X10 VGND a_361_47# Y VNB sky130_fd_pr__nfet_01v8 ad=0.169 pd=1.82 as=0.08775 ps=0.92 w=0.65 l=0.15
X11 a_361_47# a_27_47# VPWR VPB sky130_fd_pr__pfet_01v8_hvt ad=0.135 pd=1.27 as=0.135 ps=1.27 w=1 l=0.15
X12 VGND a_361_47# Y VNB sky130_fd_pr__nfet_01v8 ad=0.08775 pd=0.92 as=0.08775 ps=0.92 w=0.65 l=0.15
X13 VGND a_361_47# Y VNB sky130_fd_pr__nfet_01v8 ad=0.08775 pd=0.92 as=0.08775 ps=0.92 w=0.65 l=0.15
X14 VGND a_361_47# Y VNB sky130_fd_pr__nfet_01v8 ad=0.08775 pd=0.92 as=0.08775 ps=0.92 w=0.65 l=0.15
X15 VGND a_361_47# Y VNB sky130_fd_pr__nfet_01v8 ad=0.08775 pd=0.92 as=0.08775 ps=0.92 w=0.65 l=0.15
X16 VPWR A a_27_47# VPB sky130_fd_pr__pfet_01v8_hvt ad=0.135 pd=1.27 as=0.135 ps=1.27 w=1 l=0.15
X17 Y a_361_47# VPWR VPB sky130_fd_pr__pfet_01v8_hvt ad=0.135 pd=1.27 as=0.135 ps=1.27 w=1 l=0.15
X18 VGND a_361_47# Y VNB sky130_fd_pr__nfet_01v8 ad=0.08775 pd=0.92 as=0.08775 ps=0.92 w=0.65 l=0.15
X19 VPWR a_361_47# Y VPB sky130_fd_pr__pfet_01v8_hvt ad=0.135 pd=1.27 as=0.135 ps=1.27 w=1 l=0.15
X20 a_27_47# A VPWR VPB sky130_fd_pr__pfet_01v8_hvt ad=0.135 pd=1.27 as=0.135 ps=1.27 w=1 l=0.15
X21 Y a_361_47# VPWR VPB sky130_fd_pr__pfet_01v8_hvt ad=0.135 pd=1.27 as=0.135 ps=1.27 w=1 l=0.15
X22 a_27_47# A VGND VNB sky130_fd_pr__nfet_01v8 ad=0.08775 pd=0.92 as=0.08775 ps=0.92 w=0.65 l=0.15
X23 a_361_47# a_27_47# VGND VNB sky130_fd_pr__nfet_01v8 ad=0.08775 pd=0.92 as=0.08775 ps=0.92 w=0.65 l=0.15
X24 Y a_361_47# VPWR VPB sky130_fd_pr__pfet_01v8_hvt ad=0.135 pd=1.27 as=0.135 ps=1.27 w=1 l=0.15
X25 Y a_361_47# VGND VNB sky130_fd_pr__nfet_01v8 ad=0.08775 pd=0.92 as=0.08775 ps=0.92 w=0.65 l=0.15
X26 VPWR a_27_47# a_361_47# VPB sky130_fd_pr__pfet_01v8_hvt ad=0.135 pd=1.27 as=0.135 ps=1.27 w=1 l=0.15
X27 Y a_361_47# VGND VNB sky130_fd_pr__nfet_01v8 ad=0.08775 pd=0.92 as=0.08775 ps=0.92 w=0.65 l=0.15
X28 Y a_361_47# VPWR VPB sky130_fd_pr__pfet_01v8_hvt ad=0.135 pd=1.27 as=0.135 ps=1.27 w=1 l=0.15
X29 Y a_361_47# VGND VNB sky130_fd_pr__nfet_01v8 ad=0.08775 pd=0.92 as=0.08775 ps=0.92 w=0.65 l=0.15
X30 a_361_47# a_27_47# VPWR VPB sky130_fd_pr__pfet_01v8_hvt ad=0.135 pd=1.27 as=0.135 ps=1.27 w=1 l=0.15
X31 VPWR a_361_47# Y VPB sky130_fd_pr__pfet_01v8_hvt ad=0.135 pd=1.27 as=0.135 ps=1.27 w=1 l=0.15
X32 Y a_361_47# VGND VNB sky130_fd_pr__nfet_01v8 ad=0.08775 pd=0.92 as=0.08775 ps=0.92 w=0.65 l=0.15
X33 VGND A a_27_47# VNB sky130_fd_pr__nfet_01v8 ad=0.08775 pd=0.92 as=0.08775 ps=0.92 w=0.65 l=0.15
X34 VGND a_27_47# a_361_47# VNB sky130_fd_pr__nfet_01v8 ad=0.08775 pd=0.92 as=0.08775 ps=0.92 w=0.65 l=0.15
X35 VPWR a_27_47# a_361_47# VPB sky130_fd_pr__pfet_01v8_hvt ad=0.135 pd=1.27 as=0.135 ps=1.27 w=1 l=0.15
X36 Y a_361_47# VPWR VPB sky130_fd_pr__pfet_01v8_hvt ad=0.135 pd=1.27 as=0.135 ps=1.27 w=1 l=0.15
X37 VGND a_27_47# a_361_47# VNB sky130_fd_pr__nfet_01v8 ad=0.08775 pd=0.92 as=0.08775 ps=0.92 w=0.65 l=0.15
X38 VGND a_27_47# a_361_47# VNB sky130_fd_pr__nfet_01v8 ad=0.08775 pd=0.92 as=0.08775 ps=0.92 w=0.65 l=0.15
X39 a_361_47# a_27_47# VPWR VPB sky130_fd_pr__pfet_01v8_hvt ad=0.135 pd=1.27 as=0.135 ps=1.27 w=1 l=0.15
X40 VPWR a_361_47# Y VPB sky130_fd_pr__pfet_01v8_hvt ad=0.135 pd=1.27 as=0.135 ps=1.27 w=1 l=0.15
X41 VPWR a_361_47# Y VPB sky130_fd_pr__pfet_01v8_hvt ad=0.135 pd=1.27 as=0.135 ps=1.27 w=1 l=0.15
X42 VGND a_361_47# Y VNB sky130_fd_pr__nfet_01v8 ad=0.08775 pd=0.92 as=0.08775 ps=0.92 w=0.65 l=0.15
X43 VGND a_361_47# Y VNB sky130_fd_pr__nfet_01v8 ad=0.08775 pd=0.92 as=0.08775 ps=0.92 w=0.65 l=0.15
X44 VPWR A a_27_47# VPB sky130_fd_pr__pfet_01v8_hvt ad=0.135 pd=1.27 as=0.26 ps=2.52 w=1 l=0.15
X45 Y a_361_47# VPWR VPB sky130_fd_pr__pfet_01v8_hvt ad=0.135 pd=1.27 as=0.135 ps=1.27 w=1 l=0.15
X46 Y a_361_47# VGND VNB sky130_fd_pr__nfet_01v8 ad=0.08775 pd=0.92 as=0.08775 ps=0.92 w=0.65 l=0.15
X47 Y a_361_47# VPWR VPB sky130_fd_pr__pfet_01v8_hvt ad=0.135 pd=1.27 as=0.135 ps=1.27 w=1 l=0.15
X48 VGND A a_27_47# VNB sky130_fd_pr__nfet_01v8 ad=0.08775 pd=0.92 as=0.169 ps=1.82 w=0.65 l=0.15
X49 Y a_361_47# VGND VNB sky130_fd_pr__nfet_01v8 ad=0.08775 pd=0.92 as=0.08775 ps=0.92 w=0.65 l=0.15
C0 VPWR a_361_47# 0.7941f
C1 a_361_47# VGND 0.62299f
C2 a_361_47# A 0.00148f
C3 a_361_47# a_27_47# 0.66114f
C4 Y VPB 0.03485f
C5 Y VPWR 1.45006f
C6 Y VGND 1.053f
C7 Y a_27_47# 0.0017f
C8 VPWR VPB 0.20834f
C9 VGND VPB 0.01272f
C10 VPWR VGND 0.2259f
C11 A VPB 0.08817f
C12 a_27_47# VPB 0.1979f
C13 VPWR A 0.0498f
C14 VPWR a_27_47# 0.40289f
C15 VGND A 0.04463f
C16 VGND a_27_47# 0.31033f
C17 Y a_361_47# 1.68993f
C18 a_27_47# A 0.3805f
C19 a_361_47# VPB 0.51914f
C20 VGND VNB 1.19187f
C21 Y VNB 0.07747f
C22 VPWR VNB 1.01898f
C23 A VNB 0.29967f
C24 VPB VNB 2.19949f
C25 a_361_47# VNB 1.5068f
C26 a_27_47# VNB 0.62134f
.ends

.subckt sky130_fd_sc_hd__inv_2 A Y VPB VNB VPWR VGND
X0 Y A VPWR VPB sky130_fd_pr__pfet_01v8_hvt ad=0.135 pd=1.27 as=0.26 ps=2.52 w=1 l=0.15
X1 VGND A Y VNB sky130_fd_pr__nfet_01v8 ad=0.169 pd=1.82 as=0.08775 ps=0.92 w=0.65 l=0.15
X2 Y A VGND VNB sky130_fd_pr__nfet_01v8 ad=0.08775 pd=0.92 as=0.169 ps=1.82 w=0.65 l=0.15
X3 VPWR A Y VPB sky130_fd_pr__pfet_01v8_hvt ad=0.26 pd=2.52 as=0.135 ps=1.27 w=1 l=0.15
C0 VPWR A 0.06305f
C1 VGND Y 0.1546f
C2 VPB Y 0.0061f
C3 VGND A 0.06375f
C4 VPB A 0.07418f
C5 VPWR VGND 0.04227f
C6 VPB VPWR 0.05206f
C7 Y A 0.08939f
C8 VPB VGND 0.00649f
C9 VPWR Y 0.2091f
C10 VGND VNB 0.26619f
C11 Y VNB 0.03316f
C12 VPWR VNB 0.24604f
C13 A VNB 0.26281f
C14 VPB VNB 0.33898f
.ends

.subckt sky130_fd_sc_hd__clkinvlp_4 VNB VPB VPWR VGND A Y a_110_47# a_268_47#
X0 Y A VPWR VPB sky130_fd_pr__pfet_01v8_hvt ad=0.14 pd=1.28 as=0.265 ps=2.53 w=1 l=0.25
X1 VGND A a_268_47# VNB sky130_fd_pr__nfet_01v8 ad=0.14575 pd=1.63 as=0.05775 ps=0.76 w=0.55 l=0.15
X2 Y A VPWR VPB sky130_fd_pr__pfet_01v8_hvt ad=0.14 pd=1.28 as=0.14 ps=1.28 w=1 l=0.25
X3 Y A a_110_47# VNB sky130_fd_pr__nfet_01v8 ad=0.077 pd=0.83 as=0.05775 ps=0.76 w=0.55 l=0.15
X4 VPWR A Y VPB sky130_fd_pr__pfet_01v8_hvt ad=0.14 pd=1.28 as=0.14 ps=1.28 w=1 l=0.25
X5 a_110_47# A VGND VNB sky130_fd_pr__nfet_01v8 ad=0.05775 pd=0.76 as=0.14575 ps=1.63 w=0.55 l=0.15
X6 a_268_47# A Y VNB sky130_fd_pr__nfet_01v8 ad=0.05775 pd=0.76 as=0.077 ps=0.83 w=0.55 l=0.15
X7 VPWR A Y VPB sky130_fd_pr__pfet_01v8_hvt ad=0.265 pd=2.53 as=0.14 ps=1.28 w=1 l=0.25
C0 VGND VPWR 0.0682f
C1 a_268_47# VGND 0.008f
C2 VPWR A 0.16526f
C3 Y VPWR 0.43851f
C4 a_268_47# Y 0.00587f
C5 VPWR a_110_47# 0
C6 VGND A 0.10133f
C7 Y VGND 0.17274f
C8 VPB VPWR 0.07716f
C9 VGND a_110_47# 0.00176f
C10 Y A 0.2454f
C11 A a_110_47# 0
C12 Y a_110_47# 0.00568f
C13 VGND VPB 0.00662f
C14 a_268_47# VPWR 0
C15 VPB A 0.15965f
C16 Y VPB 0.01065f
C17 VGND VNB 0.39983f
C18 Y VNB 0.04051f
C19 VPWR VNB 0.36781f
C20 A VNB 0.57753f
C21 VPB VNB 0.60476f
.ends

.subckt sky130_fd_sc_hd__buf_4 VPWR VGND X A VPB VNB a_27_47#
X0 VPWR a_27_47# X VPB sky130_fd_pr__pfet_01v8_hvt ad=0.26 pd=2.52 as=0.135 ps=1.27 w=1 l=0.15
X1 X a_27_47# VPWR VPB sky130_fd_pr__pfet_01v8_hvt ad=0.135 pd=1.27 as=0.135 ps=1.27 w=1 l=0.15
X2 VPWR a_27_47# X VPB sky130_fd_pr__pfet_01v8_hvt ad=0.135 pd=1.27 as=0.135 ps=1.27 w=1 l=0.15
X3 X a_27_47# VPWR VPB sky130_fd_pr__pfet_01v8_hvt ad=0.135 pd=1.27 as=0.135 ps=1.27 w=1 l=0.15
X4 X a_27_47# VGND VNB sky130_fd_pr__nfet_01v8 ad=0.08775 pd=0.92 as=0.08775 ps=0.92 w=0.65 l=0.15
X5 X a_27_47# VGND VNB sky130_fd_pr__nfet_01v8 ad=0.08775 pd=0.92 as=0.08775 ps=0.92 w=0.65 l=0.15
X6 VGND a_27_47# X VNB sky130_fd_pr__nfet_01v8 ad=0.08775 pd=0.92 as=0.08775 ps=0.92 w=0.65 l=0.15
X7 VGND a_27_47# X VNB sky130_fd_pr__nfet_01v8 ad=0.169 pd=1.82 as=0.08775 ps=0.92 w=0.65 l=0.15
X8 VPWR A a_27_47# VPB sky130_fd_pr__pfet_01v8_hvt ad=0.135 pd=1.27 as=0.26 ps=2.52 w=1 l=0.15
X9 VGND A a_27_47# VNB sky130_fd_pr__nfet_01v8 ad=0.08775 pd=0.92 as=0.169 ps=1.82 w=0.65 l=0.15
C0 VGND A 0.01937f
C1 A X 0
C2 A VPB 0.03609f
C3 a_27_47# VPWR 0.21812f
C4 a_27_47# VGND 0.16264f
C5 a_27_47# X 0.20651f
C6 a_27_47# VPB 0.13215f
C7 VGND VPWR 0.07203f
C8 X VPWR 0.33254f
C9 VPB VPWR 0.07107f
C10 VGND X 0.22989f
C11 VGND VPB 0.00796f
C12 a_27_47# A 0.17018f
C13 VPB X 0.00899f
C14 A VPWR 0.01601f
C15 VGND VNB 0.37777f
C16 X VNB 0.03903f
C17 VPWR VNB 0.32508f
C18 A VNB 0.13997f
C19 VPB VNB 0.60476f
C20 a_27_47# VNB 0.46146f
.ends

.subckt sky130_fd_sc_hd__clkbuf_4 VGND VPWR A X VPB VNB a_27_47#
X0 VPWR A a_27_47# VPB sky130_fd_pr__pfet_01v8_hvt ad=0.165 pd=1.33 as=0.265 ps=2.53 w=1 l=0.15
X1 VGND a_27_47# X VNB sky130_fd_pr__nfet_01v8 ad=0.1218 pd=1.42 as=0.0588 ps=0.7 w=0.42 l=0.15
X2 VGND a_27_47# X VNB sky130_fd_pr__nfet_01v8 ad=0.0588 pd=0.7 as=0.0588 ps=0.7 w=0.42 l=0.15
X3 X a_27_47# VPWR VPB sky130_fd_pr__pfet_01v8_hvt ad=0.14 pd=1.28 as=0.14 ps=1.28 w=1 l=0.15
X4 X a_27_47# VGND VNB sky130_fd_pr__nfet_01v8 ad=0.0588 pd=0.7 as=0.0588 ps=0.7 w=0.42 l=0.15
X5 VGND A a_27_47# VNB sky130_fd_pr__nfet_01v8 ad=0.07035 pd=0.755 as=0.1113 ps=1.37 w=0.42 l=0.15
X6 VPWR a_27_47# X VPB sky130_fd_pr__pfet_01v8_hvt ad=0.3 pd=2.6 as=0.14 ps=1.28 w=1 l=0.15
X7 X a_27_47# VGND VNB sky130_fd_pr__nfet_01v8 ad=0.0588 pd=0.7 as=0.07035 ps=0.755 w=0.42 l=0.15
X8 X a_27_47# VPWR VPB sky130_fd_pr__pfet_01v8_hvt ad=0.14 pd=1.28 as=0.165 ps=1.33 w=1 l=0.15
X9 VPWR a_27_47# X VPB sky130_fd_pr__pfet_01v8_hvt ad=0.14 pd=1.28 as=0.14 ps=1.28 w=1 l=0.15
C0 VGND A 0.04309f
C1 A X 0.01395f
C2 A VPB 0.03214f
C3 a_27_47# VPWR 0.21924f
C4 a_27_47# VGND 0.14848f
C5 a_27_47# X 0.3277f
C6 a_27_47# VPB 0.13876f
C7 VGND VPWR 0.05704f
C8 X VPWR 0.31697f
C9 VPB VPWR 0.06317f
C10 VGND X 0.21559f
C11 VGND VPB 0.00583f
C12 a_27_47# A 0.19501f
C13 VPB X 0.01216f
C14 A VPWR 0.02195f
C15 VGND VNB 0.35771f
C16 X VNB 0.06701f
C17 VPWR VNB 0.30765f
C18 A VNB 0.14764f
C19 VPB VNB 0.60476f
C20 a_27_47# VNB 0.54298f
.ends

.subckt sky130_fd_sc_hd__clkbuf_16 VNB VPB VGND VPWR A X a_110_47#
X0 VPWR A a_110_47# VPB sky130_fd_pr__pfet_01v8_hvt ad=0.14 pd=1.28 as=0.14 ps=1.28 w=1 l=0.15
X1 VPWR a_110_47# X VPB sky130_fd_pr__pfet_01v8_hvt ad=0.14 pd=1.28 as=0.14 ps=1.28 w=1 l=0.15
X2 X a_110_47# VPWR VPB sky130_fd_pr__pfet_01v8_hvt ad=0.14 pd=1.28 as=0.14 ps=1.28 w=1 l=0.15
X3 X a_110_47# VPWR VPB sky130_fd_pr__pfet_01v8_hvt ad=0.14 pd=1.28 as=0.14 ps=1.28 w=1 l=0.15
X4 VPWR a_110_47# X VPB sky130_fd_pr__pfet_01v8_hvt ad=0.14 pd=1.28 as=0.14 ps=1.28 w=1 l=0.15
X5 VPWR a_110_47# X VPB sky130_fd_pr__pfet_01v8_hvt ad=0.265 pd=2.53 as=0.14 ps=1.28 w=1 l=0.15
X6 a_110_47# A VPWR VPB sky130_fd_pr__pfet_01v8_hvt ad=0.14 pd=1.28 as=0.265 ps=2.53 w=1 l=0.15
X7 a_110_47# A VGND VNB sky130_fd_pr__nfet_01v8 ad=0.0588 pd=0.7 as=0.0588 ps=0.7 w=0.42 l=0.15
X8 VGND a_110_47# X VNB sky130_fd_pr__nfet_01v8 ad=0.0588 pd=0.7 as=0.0588 ps=0.7 w=0.42 l=0.15
X9 X a_110_47# VGND VNB sky130_fd_pr__nfet_01v8 ad=0.0588 pd=0.7 as=0.0588 ps=0.7 w=0.42 l=0.15
X10 VGND a_110_47# X VNB sky130_fd_pr__nfet_01v8 ad=0.0588 pd=0.7 as=0.0588 ps=0.7 w=0.42 l=0.15
X11 a_110_47# A VPWR VPB sky130_fd_pr__pfet_01v8_hvt ad=0.14 pd=1.28 as=0.14 ps=1.28 w=1 l=0.15
X12 VGND A a_110_47# VNB sky130_fd_pr__nfet_01v8 ad=0.0588 pd=0.7 as=0.0588 ps=0.7 w=0.42 l=0.15
X13 VGND a_110_47# X VNB sky130_fd_pr__nfet_01v8 ad=0.05775 pd=0.695 as=0.0588 ps=0.7 w=0.42 l=0.15
X14 VPWR a_110_47# X VPB sky130_fd_pr__pfet_01v8_hvt ad=0.14 pd=1.28 as=0.14 ps=1.28 w=1 l=0.15
X15 X a_110_47# VPWR VPB sky130_fd_pr__pfet_01v8_hvt ad=0.14 pd=1.28 as=0.14 ps=1.28 w=1 l=0.15
X16 VGND A a_110_47# VNB sky130_fd_pr__nfet_01v8 ad=0.0588 pd=0.7 as=0.0588 ps=0.7 w=0.42 l=0.15
X17 VGND a_110_47# X VNB sky130_fd_pr__nfet_01v8 ad=0.1113 pd=1.37 as=0.0588 ps=0.7 w=0.42 l=0.15
X18 VPWR a_110_47# X VPB sky130_fd_pr__pfet_01v8_hvt ad=0.1375 pd=1.275 as=0.14 ps=1.28 w=1 l=0.15
X19 VGND a_110_47# X VNB sky130_fd_pr__nfet_01v8 ad=0.0588 pd=0.7 as=0.0588 ps=0.7 w=0.42 l=0.15
X20 X a_110_47# VPWR VPB sky130_fd_pr__pfet_01v8_hvt ad=0.14 pd=1.28 as=0.1375 ps=1.275 w=1 l=0.15
X21 a_110_47# A VGND VNB sky130_fd_pr__nfet_01v8 ad=0.0588 pd=0.7 as=0.1113 ps=1.37 w=0.42 l=0.15
X22 VPWR A a_110_47# VPB sky130_fd_pr__pfet_01v8_hvt ad=0.14 pd=1.28 as=0.14 ps=1.28 w=1 l=0.15
X23 VPWR a_110_47# X VPB sky130_fd_pr__pfet_01v8_hvt ad=0.14 pd=1.28 as=0.14 ps=1.28 w=1 l=0.15
X24 VPWR a_110_47# X VPB sky130_fd_pr__pfet_01v8_hvt ad=0.14 pd=1.28 as=0.14 ps=1.28 w=1 l=0.15
X25 VGND a_110_47# X VNB sky130_fd_pr__nfet_01v8 ad=0.0588 pd=0.7 as=0.0588 ps=0.7 w=0.42 l=0.15
X26 X a_110_47# VPWR VPB sky130_fd_pr__pfet_01v8_hvt ad=0.14 pd=1.28 as=0.14 ps=1.28 w=1 l=0.15
X27 VGND a_110_47# X VNB sky130_fd_pr__nfet_01v8 ad=0.0588 pd=0.7 as=0.0588 ps=0.7 w=0.42 l=0.15
X28 VGND a_110_47# X VNB sky130_fd_pr__nfet_01v8 ad=0.0588 pd=0.7 as=0.0588 ps=0.7 w=0.42 l=0.15